
---------- Begin Simulation Statistics ----------
sim_seconds                                  1.420006                       # Number of seconds simulated
sim_ticks                                1420005589000                       # Number of ticks simulated
final_tick                               1420005589000                       # Number of ticks from beginning of simulation (restored from checkpoints and never reset)
sim_freq                                 1000000000000                       # Frequency of simulated ticks
host_inst_rate                                 207275                       # Simulator instruction rate (inst/s)
host_op_rate                                   207275                       # Simulator op (including micro ops) rate (op/s)
host_tick_rate                            13781569577                       # Simulator tick rate (ticks/s)
host_mem_usage                                 640412                       # Number of bytes of host memory used
host_seconds                                   103.04                       # Real time elapsed on the host
sim_insts                                    21356881                       # Number of instructions simulated
sim_ops                                      21356881                       # Number of ops (including micro ops) simulated
system.voltage_domain.voltage                       1                       # Voltage in Volts
system.clk_domain.clock                          1000                       # Clock period in ticks
system.mem_ctrls.pwrStateResidencyTicks::UNDEFINED 1420005589000                       # Cumulative time (in ticks) in various power states
system.mem_ctrls.bytes_read::.cpu.inst       85427608                       # Number of bytes read from this memory
system.mem_ctrls.bytes_read::.cpu.data       17904657                       # Number of bytes read from this memory
system.mem_ctrls.bytes_read::total          103332265                       # Number of bytes read from this memory
system.mem_ctrls.bytes_inst_read::.cpu.inst     85427608                       # Number of instructions bytes read from this memory
system.mem_ctrls.bytes_inst_read::total      85427608                       # Number of instructions bytes read from this memory
system.mem_ctrls.bytes_written::.cpu.data      9600781                       # Number of bytes written to this memory
system.mem_ctrls.bytes_written::total         9600781                       # Number of bytes written to this memory
system.mem_ctrls.num_reads::.cpu.inst        21356902                       # Number of read requests responded to by this memory
system.mem_ctrls.num_reads::.cpu.data         2432611                       # Number of read requests responded to by this memory
system.mem_ctrls.num_reads::total            23789513                       # Number of read requests responded to by this memory
system.mem_ctrls.num_writes::.cpu.data        1285069                       # Number of write requests responded to by this memory
system.mem_ctrls.num_writes::total            1285069                       # Number of write requests responded to by this memory
system.mem_ctrls.bw_read::.cpu.inst          60160051                       # Total read bandwidth from this memory (bytes/s)
system.mem_ctrls.bw_read::.cpu.data          12608864                       # Total read bandwidth from this memory (bytes/s)
system.mem_ctrls.bw_read::total              72768914                       # Total read bandwidth from this memory (bytes/s)
system.mem_ctrls.bw_inst_read::.cpu.inst     60160051                       # Instruction read bandwidth from this memory (bytes/s)
system.mem_ctrls.bw_inst_read::total         60160051                       # Instruction read bandwidth from this memory (bytes/s)
system.mem_ctrls.bw_write::.cpu.data          6761087                       # Write bandwidth from this memory (bytes/s)
system.mem_ctrls.bw_write::total              6761087                       # Write bandwidth from this memory (bytes/s)
system.mem_ctrls.bw_total::.cpu.inst         60160051                       # Total bandwidth to/from this memory (bytes/s)
system.mem_ctrls.bw_total::.cpu.data         19369951                       # Total bandwidth to/from this memory (bytes/s)
system.mem_ctrls.bw_total::total             79530001                       # Total bandwidth to/from this memory (bytes/s)
system.mem_ctrls.avgPriority_.cpu.inst::samples  21356903.00                       # Average QoS priority value for accepted requests
system.mem_ctrls.avgPriority_.cpu.data::samples   1947193.00                       # Average QoS priority value for accepted requests
system.mem_ctrls.priorityMinLatency      0.000000018750                       # per QoS priority minimum request to response latency (s)
system.mem_ctrls.priorityMaxLatency      0.114551724750                       # per QoS priority maximum request to response latency (s)
system.mem_ctrls.numReadWriteTurnArounds          795                       # Number of turnarounds from READ to WRITE
system.mem_ctrls.numWriteReadTurnArounds          795                       # Number of turnarounds from WRITE to READ
system.mem_ctrls.numStayReadState            48153066                       # Number of times bus staying in READ state
system.mem_ctrls.numStayWriteState              11948                       # Number of times bus staying in WRITE state
system.mem_ctrls.readReqs                    23789514                       # Number of read requests accepted
system.mem_ctrls.writeReqs                    1285069                       # Number of write requests accepted
system.mem_ctrls.readBursts                  23789514                       # Number of DRAM read bursts, including those serviced by the write queue
system.mem_ctrls.writeBursts                  1285069                       # Number of DRAM write bursts, including those merged in the write queue
system.mem_ctrls.bytesReadDRAM             1490646400                       # Total number of bytes read from DRAM
system.mem_ctrls.bytesReadWrQ                31882496                       # Total number of bytes read from write queue
system.mem_ctrls.bytesWritten                  814080                       # Total number of bytes written to DRAM
system.mem_ctrls.bytesReadSys               103332269                       # Total read bytes from the system interface side
system.mem_ctrls.bytesWrittenSys              9600781                       # Total written bytes from the system interface side
system.mem_ctrls.servicedByWrQ                 498164                       # Number of DRAM read bursts serviced by the write queue
system.mem_ctrls.mergedWrBursts               1272323                       # Number of DRAM write bursts merged with an existing one
system.mem_ctrls.neitherReadNorWriteReqs            0                       # Number of requests that are neither read nor write
system.mem_ctrls.perBankRdBursts::0            758294                       # Per bank write bursts
system.mem_ctrls.perBankRdBursts::1           2026992                       # Per bank write bursts
system.mem_ctrls.perBankRdBursts::2           3894185                       # Per bank write bursts
system.mem_ctrls.perBankRdBursts::3            159975                       # Per bank write bursts
system.mem_ctrls.perBankRdBursts::4            401324                       # Per bank write bursts
system.mem_ctrls.perBankRdBursts::5            305339                       # Per bank write bursts
system.mem_ctrls.perBankRdBursts::6            565387                       # Per bank write bursts
system.mem_ctrls.perBankRdBursts::7          13659125                       # Per bank write bursts
system.mem_ctrls.perBankRdBursts::8            440424                       # Per bank write bursts
system.mem_ctrls.perBankRdBursts::9            240315                       # Per bank write bursts
system.mem_ctrls.perBankRdBursts::10           337201                       # Per bank write bursts
system.mem_ctrls.perBankRdBursts::11            99694                       # Per bank write bursts
system.mem_ctrls.perBankRdBursts::12            10657                       # Per bank write bursts
system.mem_ctrls.perBankRdBursts::13               95                       # Per bank write bursts
system.mem_ctrls.perBankRdBursts::14             2462                       # Per bank write bursts
system.mem_ctrls.perBankRdBursts::15           389881                       # Per bank write bursts
system.mem_ctrls.perBankWrBursts::0                 0                       # Per bank write bursts
system.mem_ctrls.perBankWrBursts::1                 0                       # Per bank write bursts
system.mem_ctrls.perBankWrBursts::2              6342                       # Per bank write bursts
system.mem_ctrls.perBankWrBursts::3                68                       # Per bank write bursts
system.mem_ctrls.perBankWrBursts::4               138                       # Per bank write bursts
system.mem_ctrls.perBankWrBursts::5              1625                       # Per bank write bursts
system.mem_ctrls.perBankWrBursts::6              2357                       # Per bank write bursts
system.mem_ctrls.perBankWrBursts::7              1510                       # Per bank write bursts
system.mem_ctrls.perBankWrBursts::8                 0                       # Per bank write bursts
system.mem_ctrls.perBankWrBursts::9                 0                       # Per bank write bursts
system.mem_ctrls.perBankWrBursts::10              326                       # Per bank write bursts
system.mem_ctrls.perBankWrBursts::11               48                       # Per bank write bursts
system.mem_ctrls.perBankWrBursts::12              306                       # Per bank write bursts
system.mem_ctrls.perBankWrBursts::13                0                       # Per bank write bursts
system.mem_ctrls.perBankWrBursts::14                0                       # Per bank write bursts
system.mem_ctrls.perBankWrBursts::15                0                       # Per bank write bursts
system.mem_ctrls.numRdRetry                         0                       # Number of times read queue was full causing retry
system.mem_ctrls.numWrRetry                         0                       # Number of times write queue was full causing retry
system.mem_ctrls.totGap                  1420005512000                       # Total gap between requests
system.mem_ctrls.readPktSize::0                 58649                       # Read request sizes (log2)
system.mem_ctrls.readPktSize::1                    10                       # Read request sizes (log2)
system.mem_ctrls.readPktSize::2              21643310                       # Read request sizes (log2)
system.mem_ctrls.readPktSize::3               2087545                       # Read request sizes (log2)
system.mem_ctrls.readPktSize::4                     0                       # Read request sizes (log2)
system.mem_ctrls.readPktSize::5                     0                       # Read request sizes (log2)
system.mem_ctrls.readPktSize::6                     0                       # Read request sizes (log2)
system.mem_ctrls.writePktSize::0                52101                       # Write request sizes (log2)
system.mem_ctrls.writePktSize::1                    0                       # Write request sizes (log2)
system.mem_ctrls.writePktSize::2                78766                       # Write request sizes (log2)
system.mem_ctrls.writePktSize::3              1154202                       # Write request sizes (log2)
system.mem_ctrls.writePktSize::4                    0                       # Write request sizes (log2)
system.mem_ctrls.writePktSize::5                    0                       # Write request sizes (log2)
system.mem_ctrls.writePktSize::6                    0                       # Write request sizes (log2)
system.mem_ctrls.rdQLenPdf::0                23291350                       # What read queue length does an incoming req see
system.mem_ctrls.rdQLenPdf::1                       0                       # What read queue length does an incoming req see
system.mem_ctrls.rdQLenPdf::2                       0                       # What read queue length does an incoming req see
system.mem_ctrls.rdQLenPdf::3                       0                       # What read queue length does an incoming req see
system.mem_ctrls.rdQLenPdf::4                       0                       # What read queue length does an incoming req see
system.mem_ctrls.rdQLenPdf::5                       0                       # What read queue length does an incoming req see
system.mem_ctrls.rdQLenPdf::6                       0                       # What read queue length does an incoming req see
system.mem_ctrls.rdQLenPdf::7                       0                       # What read queue length does an incoming req see
system.mem_ctrls.rdQLenPdf::8                       0                       # What read queue length does an incoming req see
system.mem_ctrls.rdQLenPdf::9                       0                       # What read queue length does an incoming req see
system.mem_ctrls.rdQLenPdf::10                      0                       # What read queue length does an incoming req see
system.mem_ctrls.rdQLenPdf::11                      0                       # What read queue length does an incoming req see
system.mem_ctrls.rdQLenPdf::12                      0                       # What read queue length does an incoming req see
system.mem_ctrls.rdQLenPdf::13                      0                       # What read queue length does an incoming req see
system.mem_ctrls.rdQLenPdf::14                      0                       # What read queue length does an incoming req see
system.mem_ctrls.rdQLenPdf::15                      0                       # What read queue length does an incoming req see
system.mem_ctrls.rdQLenPdf::16                      0                       # What read queue length does an incoming req see
system.mem_ctrls.rdQLenPdf::17                      0                       # What read queue length does an incoming req see
system.mem_ctrls.rdQLenPdf::18                      0                       # What read queue length does an incoming req see
system.mem_ctrls.rdQLenPdf::19                      0                       # What read queue length does an incoming req see
system.mem_ctrls.rdQLenPdf::20                      0                       # What read queue length does an incoming req see
system.mem_ctrls.rdQLenPdf::21                      0                       # What read queue length does an incoming req see
system.mem_ctrls.rdQLenPdf::22                      0                       # What read queue length does an incoming req see
system.mem_ctrls.rdQLenPdf::23                      0                       # What read queue length does an incoming req see
system.mem_ctrls.rdQLenPdf::24                      0                       # What read queue length does an incoming req see
system.mem_ctrls.rdQLenPdf::25                      0                       # What read queue length does an incoming req see
system.mem_ctrls.rdQLenPdf::26                      0                       # What read queue length does an incoming req see
system.mem_ctrls.rdQLenPdf::27                      0                       # What read queue length does an incoming req see
system.mem_ctrls.rdQLenPdf::28                      0                       # What read queue length does an incoming req see
system.mem_ctrls.rdQLenPdf::29                      0                       # What read queue length does an incoming req see
system.mem_ctrls.rdQLenPdf::30                      0                       # What read queue length does an incoming req see
system.mem_ctrls.rdQLenPdf::31                      0                       # What read queue length does an incoming req see
system.mem_ctrls.wrQLenPdf::0                       1                       # What write queue length does an incoming req see
system.mem_ctrls.wrQLenPdf::1                       1                       # What write queue length does an incoming req see
system.mem_ctrls.wrQLenPdf::2                       1                       # What write queue length does an incoming req see
system.mem_ctrls.wrQLenPdf::3                       1                       # What write queue length does an incoming req see
system.mem_ctrls.wrQLenPdf::4                       1                       # What write queue length does an incoming req see
system.mem_ctrls.wrQLenPdf::5                       1                       # What write queue length does an incoming req see
system.mem_ctrls.wrQLenPdf::6                       1                       # What write queue length does an incoming req see
system.mem_ctrls.wrQLenPdf::7                       1                       # What write queue length does an incoming req see
system.mem_ctrls.wrQLenPdf::8                       1                       # What write queue length does an incoming req see
system.mem_ctrls.wrQLenPdf::9                       1                       # What write queue length does an incoming req see
system.mem_ctrls.wrQLenPdf::10                      1                       # What write queue length does an incoming req see
system.mem_ctrls.wrQLenPdf::11                      1                       # What write queue length does an incoming req see
system.mem_ctrls.wrQLenPdf::12                      1                       # What write queue length does an incoming req see
system.mem_ctrls.wrQLenPdf::13                      1                       # What write queue length does an incoming req see
system.mem_ctrls.wrQLenPdf::14                      1                       # What write queue length does an incoming req see
system.mem_ctrls.wrQLenPdf::15                      1                       # What write queue length does an incoming req see
system.mem_ctrls.wrQLenPdf::16                      1                       # What write queue length does an incoming req see
system.mem_ctrls.wrQLenPdf::17                    796                       # What write queue length does an incoming req see
system.mem_ctrls.wrQLenPdf::18                    796                       # What write queue length does an incoming req see
system.mem_ctrls.wrQLenPdf::19                    796                       # What write queue length does an incoming req see
system.mem_ctrls.wrQLenPdf::20                    796                       # What write queue length does an incoming req see
system.mem_ctrls.wrQLenPdf::21                    796                       # What write queue length does an incoming req see
system.mem_ctrls.wrQLenPdf::22                    796                       # What write queue length does an incoming req see
system.mem_ctrls.wrQLenPdf::23                    796                       # What write queue length does an incoming req see
system.mem_ctrls.wrQLenPdf::24                    796                       # What write queue length does an incoming req see
system.mem_ctrls.wrQLenPdf::25                    796                       # What write queue length does an incoming req see
system.mem_ctrls.wrQLenPdf::26                    795                       # What write queue length does an incoming req see
system.mem_ctrls.wrQLenPdf::27                    795                       # What write queue length does an incoming req see
system.mem_ctrls.wrQLenPdf::28                    795                       # What write queue length does an incoming req see
system.mem_ctrls.wrQLenPdf::29                    795                       # What write queue length does an incoming req see
system.mem_ctrls.wrQLenPdf::30                    795                       # What write queue length does an incoming req see
system.mem_ctrls.wrQLenPdf::31                    795                       # What write queue length does an incoming req see
system.mem_ctrls.wrQLenPdf::32                    795                       # What write queue length does an incoming req see
system.mem_ctrls.wrQLenPdf::33                      0                       # What write queue length does an incoming req see
system.mem_ctrls.wrQLenPdf::34                      0                       # What write queue length does an incoming req see
system.mem_ctrls.wrQLenPdf::35                      0                       # What write queue length does an incoming req see
system.mem_ctrls.wrQLenPdf::36                      0                       # What write queue length does an incoming req see
system.mem_ctrls.wrQLenPdf::37                      0                       # What write queue length does an incoming req see
system.mem_ctrls.wrQLenPdf::38                      0                       # What write queue length does an incoming req see
system.mem_ctrls.wrQLenPdf::39                      0                       # What write queue length does an incoming req see
system.mem_ctrls.wrQLenPdf::40                      0                       # What write queue length does an incoming req see
system.mem_ctrls.wrQLenPdf::41                      0                       # What write queue length does an incoming req see
system.mem_ctrls.wrQLenPdf::42                      0                       # What write queue length does an incoming req see
system.mem_ctrls.wrQLenPdf::43                      0                       # What write queue length does an incoming req see
system.mem_ctrls.wrQLenPdf::44                      0                       # What write queue length does an incoming req see
system.mem_ctrls.wrQLenPdf::45                      0                       # What write queue length does an incoming req see
system.mem_ctrls.wrQLenPdf::46                      0                       # What write queue length does an incoming req see
system.mem_ctrls.wrQLenPdf::47                      0                       # What write queue length does an incoming req see
system.mem_ctrls.wrQLenPdf::48                      0                       # What write queue length does an incoming req see
system.mem_ctrls.wrQLenPdf::49                      0                       # What write queue length does an incoming req see
system.mem_ctrls.wrQLenPdf::50                      0                       # What write queue length does an incoming req see
system.mem_ctrls.wrQLenPdf::51                      0                       # What write queue length does an incoming req see
system.mem_ctrls.wrQLenPdf::52                      0                       # What write queue length does an incoming req see
system.mem_ctrls.wrQLenPdf::53                      0                       # What write queue length does an incoming req see
system.mem_ctrls.wrQLenPdf::54                      0                       # What write queue length does an incoming req see
system.mem_ctrls.wrQLenPdf::55                      0                       # What write queue length does an incoming req see
system.mem_ctrls.wrQLenPdf::56                      0                       # What write queue length does an incoming req see
system.mem_ctrls.wrQLenPdf::57                      0                       # What write queue length does an incoming req see
system.mem_ctrls.wrQLenPdf::58                      0                       # What write queue length does an incoming req see
system.mem_ctrls.wrQLenPdf::59                      0                       # What write queue length does an incoming req see
system.mem_ctrls.wrQLenPdf::60                      0                       # What write queue length does an incoming req see
system.mem_ctrls.wrQLenPdf::61                      0                       # What write queue length does an incoming req see
system.mem_ctrls.wrQLenPdf::62                      0                       # What write queue length does an incoming req see
system.mem_ctrls.wrQLenPdf::63                      0                       # What write queue length does an incoming req see
system.mem_ctrls.bytesPerActivate::samples      2520018                       # Bytes accessed per row activation
system.mem_ctrls.bytesPerActivate::mean    591.845093                       # Bytes accessed per row activation
system.mem_ctrls.bytesPerActivate::gmean   373.734208                       # Bytes accessed per row activation
system.mem_ctrls.bytesPerActivate::stdev   413.405625                       # Bytes accessed per row activation
system.mem_ctrls.bytesPerActivate::0-127       583491     23.15%     23.15% # Bytes accessed per row activation
system.mem_ctrls.bytesPerActivate::128-255       234648      9.31%     32.47% # Bytes accessed per row activation
system.mem_ctrls.bytesPerActivate::256-383       160922      6.39%     38.85% # Bytes accessed per row activation
system.mem_ctrls.bytesPerActivate::384-511       144618      5.74%     44.59% # Bytes accessed per row activation
system.mem_ctrls.bytesPerActivate::512-639       152061      6.03%     50.62% # Bytes accessed per row activation
system.mem_ctrls.bytesPerActivate::640-767        74364      2.95%     53.58% # Bytes accessed per row activation
system.mem_ctrls.bytesPerActivate::768-895        74865      2.97%     56.55% # Bytes accessed per row activation
system.mem_ctrls.bytesPerActivate::896-1023        40677      1.61%     58.16% # Bytes accessed per row activation
system.mem_ctrls.bytesPerActivate::1024-1151      1054372     41.84%    100.00% # Bytes accessed per row activation
system.mem_ctrls.bytesPerActivate::total      2520018                       # Bytes accessed per row activation
system.mem_ctrls.rdPerTurnAround::samples          795                       # Reads before turning the bus around for writes
system.mem_ctrls.rdPerTurnAround::mean   29296.728302                       # Reads before turning the bus around for writes
system.mem_ctrls.rdPerTurnAround::gmean   5676.127815                       # Reads before turning the bus around for writes
system.mem_ctrls.rdPerTurnAround::stdev  41165.284943                       # Reads before turning the bus around for writes
system.mem_ctrls.rdPerTurnAround::0-4095          508     63.90%     63.90% # Reads before turning the bus around for writes
system.mem_ctrls.rdPerTurnAround::4096-8191            4      0.50%     64.40% # Reads before turning the bus around for writes
system.mem_ctrls.rdPerTurnAround::8192-12287           31      3.90%     68.30% # Reads before turning the bus around for writes
system.mem_ctrls.rdPerTurnAround::12288-16383            1      0.13%     68.43% # Reads before turning the bus around for writes
system.mem_ctrls.rdPerTurnAround::32768-36863            1      0.13%     68.55% # Reads before turning the bus around for writes
system.mem_ctrls.rdPerTurnAround::36864-40959            2      0.25%     68.81% # Reads before turning the bus around for writes
system.mem_ctrls.rdPerTurnAround::40960-45055            5      0.63%     69.43% # Reads before turning the bus around for writes
system.mem_ctrls.rdPerTurnAround::45056-49151            3      0.38%     69.81% # Reads before turning the bus around for writes
system.mem_ctrls.rdPerTurnAround::49152-53247            6      0.75%     70.57% # Reads before turning the bus around for writes
system.mem_ctrls.rdPerTurnAround::53248-57343            8      1.01%     71.57% # Reads before turning the bus around for writes
system.mem_ctrls.rdPerTurnAround::57344-61439            7      0.88%     72.45% # Reads before turning the bus around for writes
system.mem_ctrls.rdPerTurnAround::61440-65535            4      0.50%     72.96% # Reads before turning the bus around for writes
system.mem_ctrls.rdPerTurnAround::73728-77823            1      0.13%     73.08% # Reads before turning the bus around for writes
system.mem_ctrls.rdPerTurnAround::77824-81919            2      0.25%     73.33% # Reads before turning the bus around for writes
system.mem_ctrls.rdPerTurnAround::81920-86015           21      2.64%     75.97% # Reads before turning the bus around for writes
system.mem_ctrls.rdPerTurnAround::86016-90111           17      2.14%     78.11% # Reads before turning the bus around for writes
system.mem_ctrls.rdPerTurnAround::90112-94207           67      8.43%     86.54% # Reads before turning the bus around for writes
system.mem_ctrls.rdPerTurnAround::94208-98303           63      7.92%     94.47% # Reads before turning the bus around for writes
system.mem_ctrls.rdPerTurnAround::98304-102399           16      2.01%     96.48% # Reads before turning the bus around for writes
system.mem_ctrls.rdPerTurnAround::102400-106495           25      3.14%     99.62% # Reads before turning the bus around for writes
system.mem_ctrls.rdPerTurnAround::106496-110591            3      0.38%    100.00% # Reads before turning the bus around for writes
system.mem_ctrls.rdPerTurnAround::total           795                       # Reads before turning the bus around for writes
system.mem_ctrls.wrPerTurnAround::samples          795                       # Writes before turning the bus around for reads
system.mem_ctrls.wrPerTurnAround::mean             16                       # Writes before turning the bus around for reads
system.mem_ctrls.wrPerTurnAround::gmean     16.000000                       # Writes before turning the bus around for reads
system.mem_ctrls.wrPerTurnAround::16              795    100.00%    100.00% # Writes before turning the bus around for reads
system.mem_ctrls.wrPerTurnAround::total           795                       # Writes before turning the bus around for reads
system.mem_ctrls.masterReadBytes::.cpu.inst     85427612                       # Per-master bytes read from memory
system.mem_ctrls.masterReadBytes::.cpu.data     14124227                       # Per-master bytes read from memory
system.mem_ctrls.masterWriteBytes::.cpu.data        93936                       # Per-master bytes write to memory
system.mem_ctrls.masterReadRate::.cpu.inst 60160053.355959005654                       # Per-master bytes read from memory rate (Bytes/sec)
system.mem_ctrls.masterReadRate::.cpu.data 9946599.583418963477                       # Per-master bytes read from memory rate (Bytes/sec)
system.mem_ctrls.masterWriteRate::.cpu.data 66151.852307955953                       # Per-master bytes write to memory rate (Bytes/sec)
system.mem_ctrls.masterReadAccesses::.cpu.inst     21356903                       # Per-master read serviced memory accesses
system.mem_ctrls.masterReadAccesses::.cpu.data      2432611                       # Per-master read serviced memory accesses
system.mem_ctrls.masterWriteAccesses::.cpu.data      1285069                       # Per-master write serviced memory accesses
system.mem_ctrls.masterReadTotalLat::.cpu.inst 598287220750                       # Per-master read total memory access latency
system.mem_ctrls.masterReadTotalLat::.cpu.data  79387346000                       # Per-master read total memory access latency
system.mem_ctrls.masterWriteTotalLat::.cpu.data 42887957311500                       # Per-master write total memory access latency
system.mem_ctrls.masterReadAvgLat::.cpu.inst     28013.76                       # Per-master read average memory access latency
system.mem_ctrls.masterReadAvgLat::.cpu.data     32634.62                       # Per-master read average memory access latency
system.mem_ctrls.masterWriteAvgLat::.cpu.data  33374050.20                       # Per-master write average memory access latency
system.mem_ctrls.totQLat                 240961754250                       # Total ticks spent queuing
system.mem_ctrls.totMemAccLat            677674566750                       # Total ticks spent from burst creation until serviced by the DRAM
system.mem_ctrls.totBusLat               116456750000                       # Total ticks spent in databus transfers
system.mem_ctrls.avgQLat                     10345.55                       # Average queueing delay per DRAM burst
system.mem_ctrls.avgBusLat                    5000.00                       # Average bus latency per DRAM burst
system.mem_ctrls.avgMemAccLat                29095.55                       # Average memory access latency per DRAM burst
system.mem_ctrls.avgRdBW                      1049.75                       # Average DRAM read bandwidth in MiByte/s
system.mem_ctrls.avgWrBW                         0.57                       # Average achieved write bandwidth in MiByte/s
system.mem_ctrls.avgRdBWSys                     72.77                       # Average system read bandwidth in MiByte/s
system.mem_ctrls.avgWrBWSys                      6.76                       # Average system write bandwidth in MiByte/s
system.mem_ctrls.peakBW                      12800.00                       # Theoretical peak bandwidth in MiByte/s
system.mem_ctrls.busUtil                         8.21                       # Data bus utilization in percentage
system.mem_ctrls.busUtilRead                     8.20                       # Data bus utilization in percentage for reads
system.mem_ctrls.busUtilWrite                    0.00                       # Data bus utilization in percentage for writes
system.mem_ctrls.avgRdQLen                       1.00                       # Average read queue length when enqueuing
system.mem_ctrls.avgWrQLen                      30.33                       # Average write queue length when enqueuing
system.mem_ctrls.readRowHits                 20772570                       # Number of row buffer hits during reads
system.mem_ctrls.writeRowHits                   11481                       # Number of row buffer hits during writes
system.mem_ctrls.readRowHitRate                 89.19                       # Row buffer hit rate for reads
system.mem_ctrls.writeRowHitRate                90.08                       # Row buffer hit rate for writes
system.mem_ctrls.avgGap                      56631.27                       # Average gap between requests
system.mem_ctrls.pageHitRate                    89.19                       # Row buffer hit rate, read and write combined
system.mem_ctrls_0.actEnergy              16542244740                       # Energy for activate commands per rank (pJ)
system.mem_ctrls_0.preEnergy               8792411595                       # Energy for precharge commands per rank (pJ)
system.mem_ctrls_0.readEnergy            155442233940                       # Energy for read commands per rank (pJ)
system.mem_ctrls_0.writeEnergy               62848800                       # Energy for write commands per rank (pJ)
system.mem_ctrls_0.refreshEnergy         112093740720.000015                       # Energy for refresh commands per rank (pJ)
system.mem_ctrls_0.actBackEnergy         284386405260                       # Energy for active background per rank (pJ)
system.mem_ctrls_0.preBackEnergy           8137923360                       # Energy for precharge background per rank (pJ)
system.mem_ctrls_0.actPowerDownEnergy    343090205940                       # Energy for active power-down per rank (pJ)
system.mem_ctrls_0.prePowerDownEnergy      8741668320                       # Energy for precharge power-down per rank (pJ)
system.mem_ctrls_0.selfRefreshEnergy     7375680.000000                       # Energy for self refresh per rank (pJ)
system.mem_ctrls_0.totalEnergy           937298422455                       # Total energy per rank (pJ)
system.mem_ctrls_0.averagePower            660.066714                       # Core power per rank (mW)
system.mem_ctrls_0.totalIdleTime         775163192750                       # Total Idle time Per DRAM Rank
system.mem_ctrls_0.memoryStateTime::IDLE   4147794000                       # Time in different power states
system.mem_ctrls_0.memoryStateTime::REF   47416980000                       # Time in different power states
system.mem_ctrls_0.memoryStateTime::SREF       105500                       # Time in different power states
system.mem_ctrls_0.memoryStateTime::PRE_PDN  22765469750                       # Time in different power states
system.mem_ctrls_0.memoryStateTime::ACT  593277501750                       # Time in different power states
system.mem_ctrls_0.memoryStateTime::ACT_PDN 752397738000                       # Time in different power states
system.mem_ctrls_1.actEnergy               1450690920                       # Energy for activate commands per rank (pJ)
system.mem_ctrls_1.preEnergy                771052920                       # Energy for precharge commands per rank (pJ)
system.mem_ctrls_1.readEnergy             10857997920                       # Energy for read commands per rank (pJ)
system.mem_ctrls_1.writeEnergy                3549600                       # Energy for write commands per rank (pJ)
system.mem_ctrls_1.refreshEnergy         64372476480.000008                       # Energy for refresh commands per rank (pJ)
system.mem_ctrls_1.actBackEnergy          31118794320                       # Energy for active background per rank (pJ)
system.mem_ctrls_1.preBackEnergy           3545908800                       # Energy for precharge background per rank (pJ)
system.mem_ctrls_1.actPowerDownEnergy    234600081870                       # Energy for active power-down per rank (pJ)
system.mem_ctrls_1.prePowerDownEnergy     88096236000                       # Energy for precharge power-down per rank (pJ)
system.mem_ctrls_1.selfRefreshEnergy     155525135880                       # Energy for self refresh per rank (pJ)
system.mem_ctrls_1.totalEnergy           590354741700                       # Total energy per rank (pJ)
system.mem_ctrls_1.averagePower            415.741140                       # Core power per rank (mW)
system.mem_ctrls_1.totalIdleTime         1342500446000                       # Total Idle time Per DRAM Rank
system.mem_ctrls_1.memoryStateTime::IDLE   6454427000                       # Time in different power states
system.mem_ctrls_1.memoryStateTime::REF   27230320000                       # Time in different power states
system.mem_ctrls_1.memoryStateTime::SREF 598608834250                       # Time in different power states
system.mem_ctrls_1.memoryStateTime::PRE_PDN 229417730750                       # Time in different power states
system.mem_ctrls_1.memoryStateTime::ACT   43820396000                       # Time in different power states
system.mem_ctrls_1.memoryStateTime::ACT_PDN 514473881000                       # Time in different power states
system.pwrStateResidencyTicks::UNDEFINED 1420005589000                       # Cumulative time (in ticks) in various power states
system.cpu_voltage_domain.voltage                   1                       # Voltage in Volts
system.cpu_clk_domain.clock                       500                       # Clock period in ticks
system.cpu.dtb.fetch_hits                           0                       # ITB hits
system.cpu.dtb.fetch_misses                         0                       # ITB misses
system.cpu.dtb.fetch_acv                            0                       # ITB acv
system.cpu.dtb.fetch_accesses                       0                       # ITB accesses
system.cpu.dtb.read_hits                      2432611                       # DTB read hits
system.cpu.dtb.read_misses                         12                       # DTB read misses
system.cpu.dtb.read_acv                             0                       # DTB read access violations
system.cpu.dtb.read_accesses                  2432623                       # DTB read accesses
system.cpu.dtb.write_hits                     1285069                       # DTB write hits
system.cpu.dtb.write_misses                         9                       # DTB write misses
system.cpu.dtb.write_acv                            0                       # DTB write access violations
system.cpu.dtb.write_accesses                 1285078                       # DTB write accesses
system.cpu.dtb.data_hits                      3717680                       # DTB hits
system.cpu.dtb.data_misses                         21                       # DTB misses
system.cpu.dtb.data_acv                             0                       # DTB access violations
system.cpu.dtb.data_accesses                  3717701                       # DTB accesses
system.cpu.itb.fetch_hits                    21356903                       # ITB hits
system.cpu.itb.fetch_misses                        31                       # ITB misses
system.cpu.itb.fetch_acv                            0                       # ITB acv
system.cpu.itb.fetch_accesses                21356934                       # ITB accesses
system.cpu.itb.read_hits                            0                       # DTB read hits
system.cpu.itb.read_misses                          0                       # DTB read misses
system.cpu.itb.read_acv                             0                       # DTB read access violations
system.cpu.itb.read_accesses                        0                       # DTB read accesses
system.cpu.itb.write_hits                           0                       # DTB write hits
system.cpu.itb.write_misses                         0                       # DTB write misses
system.cpu.itb.write_acv                            0                       # DTB write access violations
system.cpu.itb.write_accesses                       0                       # DTB write accesses
system.cpu.itb.data_hits                            0                       # DTB hits
system.cpu.itb.data_misses                          0                       # DTB misses
system.cpu.itb.data_acv                             0                       # DTB access violations
system.cpu.itb.data_accesses                        0                       # DTB accesses
system.cpu.workload.numSyscalls                    20                       # Number of system calls
system.cpu.pwrStateResidencyTicks::ON    1420005589000                       # Cumulative time (in ticks) in various power states
system.cpu.numCycles                       2840011178                       # number of cpu cycles simulated
system.cpu.numWorkItemsStarted                      0                       # number of work items this cpu started
system.cpu.numWorkItemsCompleted                    0                       # number of work items this cpu completed
system.cpu.committedInsts                    21356881                       # Number of instructions committed
system.cpu.committedOps                      21356881                       # Number of ops (including micro ops) committed
system.cpu.num_int_alu_accesses              20444426                       # Number of integer alu accesses
system.cpu.num_fp_alu_accesses                 607069                       # Number of float alu accesses
system.cpu.num_vec_alu_accesses                     0                       # Number of vector alu accesses
system.cpu.num_func_calls                      405176                       # number of times a function call or return occured
system.cpu.num_conditional_control_insts      1518186                       # number of instructions that are conditional controls
system.cpu.num_int_insts                     20444426                       # number of integer instructions
system.cpu.num_fp_insts                        607069                       # number of float instructions
system.cpu.num_vec_insts                            0                       # number of vector instructions
system.cpu.num_int_register_reads            33832147                       # number of times the integer registers were read
system.cpu.num_int_register_writes           17326483                       # number of times the integer registers were written
system.cpu.num_fp_register_reads               789535                       # number of times the floating registers were read
system.cpu.num_fp_register_writes              498900                       # number of times the floating registers were written
system.cpu.num_vec_register_reads                   0                       # number of times the vector registers were read
system.cpu.num_vec_register_writes                  0                       # number of times the vector registers were written
system.cpu.num_mem_refs                       3717701                       # number of memory refs
system.cpu.num_load_insts                     2432623                       # Number of load instructions
system.cpu.num_store_insts                    1285078                       # Number of store instructions
system.cpu.num_idle_cycles                          0                       # Number of idle cycles
system.cpu.num_busy_cycles                 2840011178                       # Number of busy cycles
system.cpu.not_idle_fraction                        1                       # Percentage of non-idle cycles
system.cpu.idle_fraction                            0                       # Percentage of idle cycles
system.cpu.Branches                           2064599                       # Number of branches fetched
system.cpu.op_class::No_OpClass                384403      1.80%      1.80% # Class of executed instruction
system.cpu.op_class::IntAlu                  16798055     78.65%     80.45% # Class of executed instruction
system.cpu.op_class::IntMult                    61221      0.29%     80.74% # Class of executed instruction
system.cpu.op_class::IntDiv                         0      0.00%     80.74% # Class of executed instruction
system.cpu.op_class::FloatAdd                  230876      1.08%     81.82% # Class of executed instruction
system.cpu.op_class::FloatCmp                   21009      0.10%     81.92% # Class of executed instruction
system.cpu.op_class::FloatCvt                   21022      0.10%     82.02% # Class of executed instruction
system.cpu.op_class::FloatMult                 110246      0.52%     82.53% # Class of executed instruction
system.cpu.op_class::FloatMultAcc                   0      0.00%     82.53% # Class of executed instruction
system.cpu.op_class::FloatDiv                      12      0.00%     82.53% # Class of executed instruction
system.cpu.op_class::FloatMisc                      0      0.00%     82.53% # Class of executed instruction
system.cpu.op_class::FloatSqrt                      0      0.00%     82.53% # Class of executed instruction
system.cpu.op_class::SimdAdd                        0      0.00%     82.53% # Class of executed instruction
system.cpu.op_class::SimdAddAcc                     0      0.00%     82.53% # Class of executed instruction
system.cpu.op_class::SimdAlu                        0      0.00%     82.53% # Class of executed instruction
system.cpu.op_class::SimdCmp                        0      0.00%     82.53% # Class of executed instruction
system.cpu.op_class::SimdCvt                        0      0.00%     82.53% # Class of executed instruction
system.cpu.op_class::SimdMisc                       0      0.00%     82.53% # Class of executed instruction
system.cpu.op_class::SimdMult                       0      0.00%     82.53% # Class of executed instruction
system.cpu.op_class::SimdMultAcc                    0      0.00%     82.53% # Class of executed instruction
system.cpu.op_class::SimdShift                      0      0.00%     82.53% # Class of executed instruction
system.cpu.op_class::SimdShiftAcc                   0      0.00%     82.53% # Class of executed instruction
system.cpu.op_class::SimdSqrt                       0      0.00%     82.53% # Class of executed instruction
system.cpu.op_class::SimdFloatAdd                   0      0.00%     82.53% # Class of executed instruction
system.cpu.op_class::SimdFloatAlu                   0      0.00%     82.53% # Class of executed instruction
system.cpu.op_class::SimdFloatCmp                   0      0.00%     82.53% # Class of executed instruction
system.cpu.op_class::SimdFloatCvt                   0      0.00%     82.53% # Class of executed instruction
system.cpu.op_class::SimdFloatDiv                   0      0.00%     82.53% # Class of executed instruction
system.cpu.op_class::SimdFloatMisc                  0      0.00%     82.53% # Class of executed instruction
system.cpu.op_class::SimdFloatMult                  0      0.00%     82.53% # Class of executed instruction
system.cpu.op_class::SimdFloatMultAcc               0      0.00%     82.53% # Class of executed instruction
system.cpu.op_class::SimdFloatSqrt                  0      0.00%     82.53% # Class of executed instruction
system.cpu.op_class::SimdAes                        0      0.00%     82.53% # Class of executed instruction
system.cpu.op_class::SimdAesMix                     0      0.00%     82.53% # Class of executed instruction
system.cpu.op_class::SimdSha1Hash                   0      0.00%     82.53% # Class of executed instruction
system.cpu.op_class::SimdSha1Hash2                  0      0.00%     82.53% # Class of executed instruction
system.cpu.op_class::SimdSha256Hash                 0      0.00%     82.53% # Class of executed instruction
system.cpu.op_class::SimdSha256Hash2                0      0.00%     82.53% # Class of executed instruction
system.cpu.op_class::SimdShaSigma2                  0      0.00%     82.53% # Class of executed instruction
system.cpu.op_class::SimdShaSigma3                  0      0.00%     82.53% # Class of executed instruction
system.cpu.op_class::MemRead                  2292239     10.73%     93.27% # Class of executed instruction
system.cpu.op_class::MemWrite                 1213915      5.68%     98.95% # Class of executed instruction
system.cpu.op_class::FloatMemRead              152740      0.72%     99.67% # Class of executed instruction
system.cpu.op_class::FloatMemWrite              71164      0.33%    100.00% # Class of executed instruction
system.cpu.op_class::IprAccess                      0      0.00%    100.00% # Class of executed instruction
system.cpu.op_class::InstPrefetch                   0      0.00%    100.00% # Class of executed instruction
system.cpu.op_class::total                   21356902                       # Class of executed instruction
system.membus.snoop_filter.tot_requests             0                       # Total number of requests made to the snoop filter.
system.membus.snoop_filter.hit_single_requests            0                       # Number of requests hitting in the snoop filter with a single holder of the requested data.
system.membus.snoop_filter.hit_multi_requests            0                       # Number of requests hitting in the snoop filter with multiple (>1) holders of the requested data.
system.membus.snoop_filter.tot_snoops               0                       # Total number of snoops made to the snoop filter.
system.membus.snoop_filter.hit_single_snoops            0                       # Number of snoops hitting in the snoop filter with a single holder of the requested data.
system.membus.snoop_filter.hit_multi_snoops            0                       # Number of snoops hitting in the snoop filter with multiple (>1) holders of the requested data.
system.membus.pwrStateResidencyTicks::UNDEFINED 1420005589000                       # Cumulative time (in ticks) in various power states
system.membus.trans_dist::ReadReq            23777158                       # Transaction distribution
system.membus.trans_dist::ReadResp           23789513                       # Transaction distribution
system.membus.trans_dist::WriteReq            1272713                       # Transaction distribution
system.membus.trans_dist::WriteResp           1272713                       # Transaction distribution
system.membus.trans_dist::LoadLockedReq         12356                       # Transaction distribution
system.membus.trans_dist::StoreCondReq          12356                       # Transaction distribution
system.membus.trans_dist::StoreCondResp         12356                       # Transaction distribution
system.membus.pkt_count_system.cpu.icache_port::system.mem_ctrls.port     42713805                       # Packet count per connected master and slave (bytes)
system.membus.pkt_count_system.cpu.dcache_port::system.mem_ctrls.port      7435360                       # Packet count per connected master and slave (bytes)
system.membus.pkt_count::total               50149165                       # Packet count per connected master and slave (bytes)
system.membus.pkt_size_system.cpu.icache_port::system.mem_ctrls.port     85427608                       # Cumulative packet size per connected master and slave (bytes)
system.membus.pkt_size_system.cpu.dcache_port::system.mem_ctrls.port     27505438                       # Cumulative packet size per connected master and slave (bytes)
system.membus.pkt_size::total               112933046                       # Cumulative packet size per connected master and slave (bytes)
system.membus.snoops                                0                       # Total snoops (count)
system.membus.snoopTraffic                          0                       # Total snoop traffic (bytes)
system.membus.snoop_fanout::samples          25074583                       # Request fanout histogram
system.membus.snoop_fanout::mean                    0                       # Request fanout histogram
system.membus.snoop_fanout::stdev                   0                       # Request fanout histogram
system.membus.snoop_fanout::underflows              0      0.00%      0.00% # Request fanout histogram
system.membus.snoop_fanout::0                25074583    100.00%    100.00% # Request fanout histogram
system.membus.snoop_fanout::1                       0      0.00%    100.00% # Request fanout histogram
system.membus.snoop_fanout::overflows               0      0.00%    100.00% # Request fanout histogram
system.membus.snoop_fanout::min_value               0                       # Request fanout histogram
system.membus.snoop_fanout::max_value               0                       # Request fanout histogram
system.membus.snoop_fanout::total            25074583                       # Request fanout histogram
system.membus.reqLayer0.occupancy         26359652000                       # Layer occupancy (ticks)
system.membus.reqLayer0.utilization               1.9                       # Layer utilization (%)
system.membus.respLayer1.occupancy        48597006000                       # Layer occupancy (ticks)
system.membus.respLayer1.utilization              3.4                       # Layer utilization (%)
system.membus.respLayer2.occupancy         6907937000                       # Layer occupancy (ticks)
system.membus.respLayer2.utilization              0.5                       # Layer utilization (%)

---------- End Simulation Statistics   ----------
