
---------- Begin Simulation Statistics ----------
sim_seconds                                  0.005960                       # Number of seconds simulated
sim_ticks                                  5960385500                       # Number of ticks simulated
final_tick                                 5960385500                       # Number of ticks from beginning of simulation (restored from checkpoints and never reset)
sim_freq                                 1000000000000                       # Frequency of simulated ticks
host_inst_rate                                 244802                       # Simulator instruction rate (inst/s)
host_op_rate                                   244798                       # Simulator op (including micro ops) rate (op/s)
host_tick_rate                              165737855                       # Simulator tick rate (ticks/s)
host_mem_usage                                 172784                       # Number of bytes of host memory used
host_seconds                                    35.96                       # Real time elapsed on the host
sim_insts                                     8803354                       # Number of instructions simulated
sim_ops                                       8803354                       # Number of ops (including micro ops) simulated
system.voltage_domain.voltage                       1                       # Voltage in Volts
system.clk_domain.clock                          1000                       # Clock period in ticks
system.mem_ctrls.pwrStateResidencyTicks::UNDEFINED   5960385500                       # Cumulative time (in ticks) in various power states
system.mem_ctrls.bytes_read::cpu.inst         2918080                       # Number of bytes read from this memory
system.mem_ctrls.bytes_read::cpu.data           61888                       # Number of bytes read from this memory
system.mem_ctrls.bytes_read::total            2979968                       # Number of bytes read from this memory
system.mem_ctrls.bytes_inst_read::cpu.inst      2918080                       # Number of instructions bytes read from this memory
system.mem_ctrls.bytes_inst_read::total       2918080                       # Number of instructions bytes read from this memory
system.mem_ctrls.bytes_written::writebacks         3456                       # Number of bytes written to this memory
system.mem_ctrls.bytes_written::total            3456                       # Number of bytes written to this memory
system.mem_ctrls.num_reads::cpu.inst            45595                       # Number of read requests responded to by this memory
system.mem_ctrls.num_reads::cpu.data              967                       # Number of read requests responded to by this memory
system.mem_ctrls.num_reads::total               46562                       # Number of read requests responded to by this memory
system.mem_ctrls.num_writes::writebacks            54                       # Number of write requests responded to by this memory
system.mem_ctrls.num_writes::total                 54                       # Number of write requests responded to by this memory
system.mem_ctrls.bw_read::cpu.inst          489579072                       # Total read bandwidth from this memory (bytes/s)
system.mem_ctrls.bw_read::cpu.data           10383221                       # Total read bandwidth from this memory (bytes/s)
system.mem_ctrls.bw_read::total             499962293                       # Total read bandwidth from this memory (bytes/s)
system.mem_ctrls.bw_inst_read::cpu.inst     489579072                       # Instruction read bandwidth from this memory (bytes/s)
system.mem_ctrls.bw_inst_read::total        489579072                       # Instruction read bandwidth from this memory (bytes/s)
system.mem_ctrls.bw_write::writebacks          579828                       # Write bandwidth from this memory (bytes/s)
system.mem_ctrls.bw_write::total               579828                       # Write bandwidth from this memory (bytes/s)
system.mem_ctrls.bw_total::writebacks          579828                       # Total bandwidth to/from this memory (bytes/s)
system.mem_ctrls.bw_total::cpu.inst         489579072                       # Total bandwidth to/from this memory (bytes/s)
system.mem_ctrls.bw_total::cpu.data          10383221                       # Total bandwidth to/from this memory (bytes/s)
system.mem_ctrls.bw_total::total            500542121                       # Total bandwidth to/from this memory (bytes/s)
system.mem_ctrls.readReqs                       46563                       # Number of read requests accepted
system.mem_ctrls.writeReqs                      45140                       # Number of write requests accepted
system.mem_ctrls.readBursts                     46563                       # Number of DRAM read bursts, including those serviced by the write queue
system.mem_ctrls.writeBursts                    45140                       # Number of DRAM write bursts, including those merged in the write queue
system.mem_ctrls.bytesReadDRAM                1938944                       # Total number of bytes read from DRAM
system.mem_ctrls.bytesReadWrQ                 1041088                       # Total number of bytes read from write queue
system.mem_ctrls.bytesWritten                 2218368                       # Total number of bytes written to DRAM
system.mem_ctrls.bytesReadSys                 2980032                       # Total read bytes from the system interface side
system.mem_ctrls.bytesWrittenSys              2888960                       # Total written bytes from the system interface side
system.mem_ctrls.servicedByWrQ                  16267                       # Number of DRAM read bursts serviced by the write queue
system.mem_ctrls.mergedWrBursts                 10452                       # Number of DRAM write bursts merged with an existing one
system.mem_ctrls.neitherReadNorWriteReqs            0                       # Number of requests that are neither read nor write
system.mem_ctrls.perBankRdBursts::0              6420                       # Per bank write bursts
system.mem_ctrls.perBankRdBursts::1               747                       # Per bank write bursts
system.mem_ctrls.perBankRdBursts::2              8918                       # Per bank write bursts
system.mem_ctrls.perBankRdBursts::3               322                       # Per bank write bursts
system.mem_ctrls.perBankRdBursts::4               263                       # Per bank write bursts
system.mem_ctrls.perBankRdBursts::5               162                       # Per bank write bursts
system.mem_ctrls.perBankRdBursts::6             10109                       # Per bank write bursts
system.mem_ctrls.perBankRdBursts::7               787                       # Per bank write bursts
system.mem_ctrls.perBankRdBursts::8                96                       # Per bank write bursts
system.mem_ctrls.perBankRdBursts::9               138                       # Per bank write bursts
system.mem_ctrls.perBankRdBursts::10              157                       # Per bank write bursts
system.mem_ctrls.perBankRdBursts::11               85                       # Per bank write bursts
system.mem_ctrls.perBankRdBursts::12             1680                       # Per bank write bursts
system.mem_ctrls.perBankRdBursts::13               49                       # Per bank write bursts
system.mem_ctrls.perBankRdBursts::14               90                       # Per bank write bursts
system.mem_ctrls.perBankRdBursts::15              273                       # Per bank write bursts
system.mem_ctrls.perBankWrBursts::0              7637                       # Per bank write bursts
system.mem_ctrls.perBankWrBursts::1               649                       # Per bank write bursts
system.mem_ctrls.perBankWrBursts::2              9306                       # Per bank write bursts
system.mem_ctrls.perBankWrBursts::3               312                       # Per bank write bursts
system.mem_ctrls.perBankWrBursts::4                31                       # Per bank write bursts
system.mem_ctrls.perBankWrBursts::5                71                       # Per bank write bursts
system.mem_ctrls.perBankWrBursts::6             12650                       # Per bank write bursts
system.mem_ctrls.perBankWrBursts::7               850                       # Per bank write bursts
system.mem_ctrls.perBankWrBursts::8                46                       # Per bank write bursts
system.mem_ctrls.perBankWrBursts::9                 6                       # Per bank write bursts
system.mem_ctrls.perBankWrBursts::10                9                       # Per bank write bursts
system.mem_ctrls.perBankWrBursts::11               32                       # Per bank write bursts
system.mem_ctrls.perBankWrBursts::12             2114                       # Per bank write bursts
system.mem_ctrls.perBankWrBursts::13               35                       # Per bank write bursts
system.mem_ctrls.perBankWrBursts::14               59                       # Per bank write bursts
system.mem_ctrls.perBankWrBursts::15              855                       # Per bank write bursts
system.mem_ctrls.numRdRetry                         0                       # Number of times read queue was full causing retry
system.mem_ctrls.numWrRetry                         0                       # Number of times write queue was full causing retry
system.mem_ctrls.totGap                    5960367000                       # Total gap between requests
system.mem_ctrls.readPktSize::0                     0                       # Read request sizes (log2)
system.mem_ctrls.readPktSize::1                     0                       # Read request sizes (log2)
system.mem_ctrls.readPktSize::2                     0                       # Read request sizes (log2)
system.mem_ctrls.readPktSize::3                     0                       # Read request sizes (log2)
system.mem_ctrls.readPktSize::4                     0                       # Read request sizes (log2)
system.mem_ctrls.readPktSize::5                     0                       # Read request sizes (log2)
system.mem_ctrls.readPktSize::6                 46563                       # Read request sizes (log2)
system.mem_ctrls.writePktSize::0                    0                       # Write request sizes (log2)
system.mem_ctrls.writePktSize::1                    0                       # Write request sizes (log2)
system.mem_ctrls.writePktSize::2                    0                       # Write request sizes (log2)
system.mem_ctrls.writePktSize::3                    0                       # Write request sizes (log2)
system.mem_ctrls.writePktSize::4                    0                       # Write request sizes (log2)
system.mem_ctrls.writePktSize::5                    0                       # Write request sizes (log2)
system.mem_ctrls.writePktSize::6                45140                       # Write request sizes (log2)
system.mem_ctrls.rdQLenPdf::0                   23113                       # What read queue length does an incoming req see
system.mem_ctrls.rdQLenPdf::1                    5969                       # What read queue length does an incoming req see
system.mem_ctrls.rdQLenPdf::2                    1143                       # What read queue length does an incoming req see
system.mem_ctrls.rdQLenPdf::3                      62                       # What read queue length does an incoming req see
system.mem_ctrls.rdQLenPdf::4                       8                       # What read queue length does an incoming req see
system.mem_ctrls.rdQLenPdf::5                       1                       # What read queue length does an incoming req see
system.mem_ctrls.rdQLenPdf::6                       0                       # What read queue length does an incoming req see
system.mem_ctrls.rdQLenPdf::7                       0                       # What read queue length does an incoming req see
system.mem_ctrls.rdQLenPdf::8                       0                       # What read queue length does an incoming req see
system.mem_ctrls.rdQLenPdf::9                       0                       # What read queue length does an incoming req see
system.mem_ctrls.rdQLenPdf::10                      0                       # What read queue length does an incoming req see
system.mem_ctrls.rdQLenPdf::11                      0                       # What read queue length does an incoming req see
system.mem_ctrls.rdQLenPdf::12                      0                       # What read queue length does an incoming req see
system.mem_ctrls.rdQLenPdf::13                      0                       # What read queue length does an incoming req see
system.mem_ctrls.rdQLenPdf::14                      0                       # What read queue length does an incoming req see
system.mem_ctrls.rdQLenPdf::15                      0                       # What read queue length does an incoming req see
system.mem_ctrls.rdQLenPdf::16                      0                       # What read queue length does an incoming req see
system.mem_ctrls.rdQLenPdf::17                      0                       # What read queue length does an incoming req see
system.mem_ctrls.rdQLenPdf::18                      0                       # What read queue length does an incoming req see
system.mem_ctrls.rdQLenPdf::19                      0                       # What read queue length does an incoming req see
system.mem_ctrls.rdQLenPdf::20                      0                       # What read queue length does an incoming req see
system.mem_ctrls.rdQLenPdf::21                      0                       # What read queue length does an incoming req see
system.mem_ctrls.rdQLenPdf::22                      0                       # What read queue length does an incoming req see
system.mem_ctrls.rdQLenPdf::23                      0                       # What read queue length does an incoming req see
system.mem_ctrls.rdQLenPdf::24                      0                       # What read queue length does an incoming req see
system.mem_ctrls.rdQLenPdf::25                      0                       # What read queue length does an incoming req see
system.mem_ctrls.rdQLenPdf::26                      0                       # What read queue length does an incoming req see
system.mem_ctrls.rdQLenPdf::27                      0                       # What read queue length does an incoming req see
system.mem_ctrls.rdQLenPdf::28                      0                       # What read queue length does an incoming req see
system.mem_ctrls.rdQLenPdf::29                      0                       # What read queue length does an incoming req see
system.mem_ctrls.rdQLenPdf::30                      0                       # What read queue length does an incoming req see
system.mem_ctrls.rdQLenPdf::31                      0                       # What read queue length does an incoming req see
system.mem_ctrls.wrQLenPdf::0                       1                       # What write queue length does an incoming req see
system.mem_ctrls.wrQLenPdf::1                       1                       # What write queue length does an incoming req see
system.mem_ctrls.wrQLenPdf::2                       1                       # What write queue length does an incoming req see
system.mem_ctrls.wrQLenPdf::3                       1                       # What write queue length does an incoming req see
system.mem_ctrls.wrQLenPdf::4                       1                       # What write queue length does an incoming req see
system.mem_ctrls.wrQLenPdf::5                       1                       # What write queue length does an incoming req see
system.mem_ctrls.wrQLenPdf::6                       1                       # What write queue length does an incoming req see
system.mem_ctrls.wrQLenPdf::7                       1                       # What write queue length does an incoming req see
system.mem_ctrls.wrQLenPdf::8                       1                       # What write queue length does an incoming req see
system.mem_ctrls.wrQLenPdf::9                       1                       # What write queue length does an incoming req see
system.mem_ctrls.wrQLenPdf::10                      1                       # What write queue length does an incoming req see
system.mem_ctrls.wrQLenPdf::11                      1                       # What write queue length does an incoming req see
system.mem_ctrls.wrQLenPdf::12                      1                       # What write queue length does an incoming req see
system.mem_ctrls.wrQLenPdf::13                      1                       # What write queue length does an incoming req see
system.mem_ctrls.wrQLenPdf::14                      1                       # What write queue length does an incoming req see
system.mem_ctrls.wrQLenPdf::15                    281                       # What write queue length does an incoming req see
system.mem_ctrls.wrQLenPdf::16                    307                       # What write queue length does an incoming req see
system.mem_ctrls.wrQLenPdf::17                   1500                       # What write queue length does an incoming req see
system.mem_ctrls.wrQLenPdf::18                   1970                       # What write queue length does an incoming req see
system.mem_ctrls.wrQLenPdf::19                   2234                       # What write queue length does an incoming req see
system.mem_ctrls.wrQLenPdf::20                   2200                       # What write queue length does an incoming req see
system.mem_ctrls.wrQLenPdf::21                   2173                       # What write queue length does an incoming req see
system.mem_ctrls.wrQLenPdf::22                   2147                       # What write queue length does an incoming req see
system.mem_ctrls.wrQLenPdf::23                   2318                       # What write queue length does an incoming req see
system.mem_ctrls.wrQLenPdf::24                   2188                       # What write queue length does an incoming req see
system.mem_ctrls.wrQLenPdf::25                   2183                       # What write queue length does an incoming req see
system.mem_ctrls.wrQLenPdf::26                   2159                       # What write queue length does an incoming req see
system.mem_ctrls.wrQLenPdf::27                   2310                       # What write queue length does an incoming req see
system.mem_ctrls.wrQLenPdf::28                   2176                       # What write queue length does an incoming req see
system.mem_ctrls.wrQLenPdf::29                   2165                       # What write queue length does an incoming req see
system.mem_ctrls.wrQLenPdf::30                   2120                       # What write queue length does an incoming req see
system.mem_ctrls.wrQLenPdf::31                   2116                       # What write queue length does an incoming req see
system.mem_ctrls.wrQLenPdf::32                   2107                       # What write queue length does an incoming req see
system.mem_ctrls.wrQLenPdf::33                     12                       # What write queue length does an incoming req see
system.mem_ctrls.wrQLenPdf::34                      3                       # What write queue length does an incoming req see
system.mem_ctrls.wrQLenPdf::35                      2                       # What write queue length does an incoming req see
system.mem_ctrls.wrQLenPdf::36                      1                       # What write queue length does an incoming req see
system.mem_ctrls.wrQLenPdf::37                      1                       # What write queue length does an incoming req see
system.mem_ctrls.wrQLenPdf::38                      0                       # What write queue length does an incoming req see
system.mem_ctrls.wrQLenPdf::39                      0                       # What write queue length does an incoming req see
system.mem_ctrls.wrQLenPdf::40                      0                       # What write queue length does an incoming req see
system.mem_ctrls.wrQLenPdf::41                      0                       # What write queue length does an incoming req see
system.mem_ctrls.wrQLenPdf::42                      0                       # What write queue length does an incoming req see
system.mem_ctrls.wrQLenPdf::43                      0                       # What write queue length does an incoming req see
system.mem_ctrls.wrQLenPdf::44                      0                       # What write queue length does an incoming req see
system.mem_ctrls.wrQLenPdf::45                      0                       # What write queue length does an incoming req see
system.mem_ctrls.wrQLenPdf::46                      0                       # What write queue length does an incoming req see
system.mem_ctrls.wrQLenPdf::47                      0                       # What write queue length does an incoming req see
system.mem_ctrls.wrQLenPdf::48                      0                       # What write queue length does an incoming req see
system.mem_ctrls.wrQLenPdf::49                      0                       # What write queue length does an incoming req see
system.mem_ctrls.wrQLenPdf::50                      0                       # What write queue length does an incoming req see
system.mem_ctrls.wrQLenPdf::51                      0                       # What write queue length does an incoming req see
system.mem_ctrls.wrQLenPdf::52                      0                       # What write queue length does an incoming req see
system.mem_ctrls.wrQLenPdf::53                      0                       # What write queue length does an incoming req see
system.mem_ctrls.wrQLenPdf::54                      0                       # What write queue length does an incoming req see
system.mem_ctrls.wrQLenPdf::55                      0                       # What write queue length does an incoming req see
system.mem_ctrls.wrQLenPdf::56                      0                       # What write queue length does an incoming req see
system.mem_ctrls.wrQLenPdf::57                      0                       # What write queue length does an incoming req see
system.mem_ctrls.wrQLenPdf::58                      0                       # What write queue length does an incoming req see
system.mem_ctrls.wrQLenPdf::59                      0                       # What write queue length does an incoming req see
system.mem_ctrls.wrQLenPdf::60                      0                       # What write queue length does an incoming req see
system.mem_ctrls.wrQLenPdf::61                      0                       # What write queue length does an incoming req see
system.mem_ctrls.wrQLenPdf::62                      0                       # What write queue length does an incoming req see
system.mem_ctrls.wrQLenPdf::63                      0                       # What write queue length does an incoming req see
system.mem_ctrls.bytesPerActivate::samples        11796                       # Bytes accessed per row activation
system.mem_ctrls.bytesPerActivate::mean    352.032553                       # Bytes accessed per row activation
system.mem_ctrls.bytesPerActivate::gmean   251.669797                       # Bytes accessed per row activation
system.mem_ctrls.bytesPerActivate::stdev   275.248860                       # Bytes accessed per row activation
system.mem_ctrls.bytesPerActivate::0-127         1997     16.93%     16.93% # Bytes accessed per row activation
system.mem_ctrls.bytesPerActivate::128-255         3189     27.03%     43.96% # Bytes accessed per row activation
system.mem_ctrls.bytesPerActivate::256-383         1854     15.72%     59.68% # Bytes accessed per row activation
system.mem_ctrls.bytesPerActivate::384-511         1576     13.36%     73.04% # Bytes accessed per row activation
system.mem_ctrls.bytesPerActivate::512-639         1162      9.85%     82.89% # Bytes accessed per row activation
system.mem_ctrls.bytesPerActivate::640-767          622      5.27%     88.17% # Bytes accessed per row activation
system.mem_ctrls.bytesPerActivate::768-895          447      3.79%     91.95% # Bytes accessed per row activation
system.mem_ctrls.bytesPerActivate::896-1023          330      2.80%     94.75% # Bytes accessed per row activation
system.mem_ctrls.bytesPerActivate::1024-1151          619      5.25%    100.00% # Bytes accessed per row activation
system.mem_ctrls.bytesPerActivate::total        11796                       # Bytes accessed per row activation
system.mem_ctrls.rdPerTurnAround::samples         2106                       # Reads before turning the bus around for writes
system.mem_ctrls.rdPerTurnAround::mean      14.380342                       # Reads before turning the bus around for writes
system.mem_ctrls.rdPerTurnAround::gmean     13.799810                       # Reads before turning the bus around for writes
system.mem_ctrls.rdPerTurnAround::stdev      8.801812                       # Reads before turning the bus around for writes
system.mem_ctrls.rdPerTurnAround::0-15           1317     62.54%     62.54% # Reads before turning the bus around for writes
system.mem_ctrls.rdPerTurnAround::16-31           781     37.08%     99.62% # Reads before turning the bus around for writes
system.mem_ctrls.rdPerTurnAround::32-47             3      0.14%     99.76% # Reads before turning the bus around for writes
system.mem_ctrls.rdPerTurnAround::48-63             3      0.14%     99.91% # Reads before turning the bus around for writes
system.mem_ctrls.rdPerTurnAround::96-111            1      0.05%     99.95% # Reads before turning the bus around for writes
system.mem_ctrls.rdPerTurnAround::368-383            1      0.05%    100.00% # Reads before turning the bus around for writes
system.mem_ctrls.rdPerTurnAround::total          2106                       # Reads before turning the bus around for writes
system.mem_ctrls.wrPerTurnAround::samples         2106                       # Writes before turning the bus around for reads
system.mem_ctrls.wrPerTurnAround::mean      16.458689                       # Writes before turning the bus around for reads
system.mem_ctrls.wrPerTurnAround::gmean     16.424788                       # Writes before turning the bus around for reads
system.mem_ctrls.wrPerTurnAround::stdev      1.114556                       # Writes before turning the bus around for reads
system.mem_ctrls.wrPerTurnAround::16             1719     81.62%     81.62% # Writes before turning the bus around for reads
system.mem_ctrls.wrPerTurnAround::17               91      4.32%     85.94% # Writes before turning the bus around for reads
system.mem_ctrls.wrPerTurnAround::18              153      7.26%     93.21% # Writes before turning the bus around for reads
system.mem_ctrls.wrPerTurnAround::19               46      2.18%     95.39% # Writes before turning the bus around for reads
system.mem_ctrls.wrPerTurnAround::20               55      2.61%     98.01% # Writes before turning the bus around for reads
system.mem_ctrls.wrPerTurnAround::21               41      1.95%     99.95% # Writes before turning the bus around for reads
system.mem_ctrls.wrPerTurnAround::22                1      0.05%    100.00% # Writes before turning the bus around for reads
system.mem_ctrls.wrPerTurnAround::total          2106                       # Writes before turning the bus around for reads
system.mem_ctrls.totQLat                    645152500                       # Total ticks spent queuing
system.mem_ctrls.totMemAccLat              1213202500                       # Total ticks spent from burst creation until serviced by the DRAM
system.mem_ctrls.totBusLat                  151480000                       # Total ticks spent in databus transfers
system.mem_ctrls.avgQLat                     21294.97                       # Average queueing delay per DRAM burst
system.mem_ctrls.avgBusLat                    5000.00                       # Average bus latency per DRAM burst
system.mem_ctrls.avgMemAccLat                40044.97                       # Average memory access latency per DRAM burst
system.mem_ctrls.avgRdBW                       325.31                       # Average DRAM read bandwidth in MiByte/s
system.mem_ctrls.avgWrBW                       372.19                       # Average achieved write bandwidth in MiByte/s
system.mem_ctrls.avgRdBWSys                    499.97                       # Average system read bandwidth in MiByte/s
system.mem_ctrls.avgWrBWSys                    484.69                       # Average system write bandwidth in MiByte/s
system.mem_ctrls.peakBW                      12800.00                       # Theoretical peak bandwidth in MiByte/s
system.mem_ctrls.busUtil                         5.45                       # Data bus utilization in percentage
system.mem_ctrls.busUtilRead                     2.54                       # Data bus utilization in percentage for reads
system.mem_ctrls.busUtilWrite                    2.91                       # Data bus utilization in percentage for writes
system.mem_ctrls.avgRdQLen                       1.11                       # Average read queue length when enqueuing
system.mem_ctrls.avgWrQLen                      25.46                       # Average write queue length when enqueuing
system.mem_ctrls.readRowHits                    23427                       # Number of row buffer hits during reads
system.mem_ctrls.writeRowHits                   29719                       # Number of row buffer hits during writes
system.mem_ctrls.readRowHitRate                 77.33                       # Row buffer hit rate for reads
system.mem_ctrls.writeRowHitRate                85.68                       # Row buffer hit rate for writes
system.mem_ctrls.avgGap                      64996.42                       # Average gap between requests
system.mem_ctrls.pageHitRate                    81.78                       # Row buffer hit rate, read and write combined
system.mem_ctrls_0.actEnergy                 72556680                       # Energy for activate commands per rank (pJ)
system.mem_ctrls_0.preEnergy                 38534430                       # Energy for precharge commands per rank (pJ)
system.mem_ctrls_0.readEnergy               197977920                       # Energy for read commands per rank (pJ)
system.mem_ctrls_0.writeEnergy              164461320                       # Energy for write commands per rank (pJ)
system.mem_ctrls_0.refreshEnergy         283349040.000000                       # Energy for refresh commands per rank (pJ)
system.mem_ctrls_0.actBackEnergy            518027970                       # Energy for active background per rank (pJ)
system.mem_ctrls_0.preBackEnergy              7881120                       # Energy for precharge background per rank (pJ)
system.mem_ctrls_0.actPowerDownEnergy       941003310                       # Energy for active power-down per rank (pJ)
system.mem_ctrls_0.prePowerDownEnergy        87990240                       # Energy for precharge power-down per rank (pJ)
system.mem_ctrls_0.selfRefreshEnergy        613706700                       # Energy for self refresh per rank (pJ)
system.mem_ctrls_0.totalEnergy             2925488730                       # Total energy per rank (pJ)
system.mem_ctrls_0.averagePower            490.822067                       # Core power per rank (mW)
system.mem_ctrls_0.totalIdleTime           4803844000                       # Total Idle time Per DRAM Rank
system.mem_ctrls_0.memoryStateTime::IDLE      7275000                       # Time in different power states
system.mem_ctrls_0.memoryStateTime::REF     119986000                       # Time in different power states
system.mem_ctrls_0.memoryStateTime::SREF   2511087750                       # Time in different power states
system.mem_ctrls_0.memoryStateTime::PRE_PDN    229107500                       # Time in different power states
system.mem_ctrls_0.memoryStateTime::ACT    1029280500                       # Time in different power states
system.mem_ctrls_0.memoryStateTime::ACT_PDN   2063648750                       # Time in different power states
system.mem_ctrls_1.actEnergy                 11781000                       # Energy for activate commands per rank (pJ)
system.mem_ctrls_1.preEnergy                  6231390                       # Energy for precharge commands per rank (pJ)
system.mem_ctrls_1.readEnergy                18335520                       # Energy for read commands per rank (pJ)
system.mem_ctrls_1.writeEnergy               16474320                       # Energy for write commands per rank (pJ)
system.mem_ctrls_1.refreshEnergy         262451280.000000                       # Energy for refresh commands per rank (pJ)
system.mem_ctrls_1.actBackEnergy            627965010                       # Energy for active background per rank (pJ)
system.mem_ctrls_1.preBackEnergy             18525120                       # Energy for precharge background per rank (pJ)
system.mem_ctrls_1.actPowerDownEnergy       517240800                       # Energy for active power-down per rank (pJ)
system.mem_ctrls_1.prePowerDownEnergy       239734080                       # Energy for precharge power-down per rank (pJ)
system.mem_ctrls_1.selfRefreshEnergy        677385600                       # Energy for self refresh per rank (pJ)
system.mem_ctrls_1.totalEnergy             2396124120                       # Total energy per rank (pJ)
system.mem_ctrls_1.averagePower            402.008246                       # Core power per rank (mW)
system.mem_ctrls_1.totalIdleTime           4535048250                       # Total Idle time Per DRAM Rank
system.mem_ctrls_1.memoryStateTime::IDLE     34321500                       # Time in different power states
system.mem_ctrls_1.memoryStateTime::REF     111140000                       # Time in different power states
system.mem_ctrls_1.memoryStateTime::SREF   2776419250                       # Time in different power states
system.mem_ctrls_1.memoryStateTime::PRE_PDN    624196000                       # Time in different power states
system.mem_ctrls_1.memoryStateTime::ACT    1279865000                       # Time in different power states
system.mem_ctrls_1.memoryStateTime::ACT_PDN   1134443750                       # Time in different power states
system.pwrStateResidencyTicks::UNDEFINED   5960385500                       # Cumulative time (in ticks) in various power states
system.cpu.branchPred.lookups                 2555098                       # Number of BP lookups
system.cpu.branchPred.condPredicted           1836595                       # Number of conditional branches predicted
system.cpu.branchPred.condIncorrect            235960                       # Number of conditional branches incorrect
system.cpu.branchPred.BTBLookups              2270472                       # Number of BTB lookups
system.cpu.branchPred.BTBHits                 1305258                       # Number of BTB hits
system.cpu.branchPred.BTBCorrect                    0                       # Number of correct BTB predictions (this stat may not work properly.
system.cpu.branchPred.BTBHitPct             57.488399                       # BTB Hit Percentage
system.cpu.branchPred.usedRAS                  181759                       # Number of times the RAS was used to get a target.
system.cpu.branchPred.RASInCorrect                  2                       # Number of incorrect RAS predictions.
system.cpu.branchPred.indirectLookups           48461                       # Number of indirect predictor lookups.
system.cpu.branchPred.indirectHits              21172                       # Number of indirect target hits.
system.cpu.branchPred.indirectMisses            27289                       # Number of indirect misses.
system.cpu.branchPredindirectMispredicted          115                       # Number of mispredicted indirect branches.
system.cpu_voltage_domain.voltage                   1                       # Voltage in Volts
system.cpu_clk_domain.clock                       500                       # Clock period in ticks
system.cpu.dtb.fetch_hits                           0                       # ITB hits
system.cpu.dtb.fetch_misses                         0                       # ITB misses
system.cpu.dtb.fetch_acv                            0                       # ITB acv
system.cpu.dtb.fetch_accesses                       0                       # ITB accesses
system.cpu.dtb.read_hits                      1519158                       # DTB read hits
system.cpu.dtb.read_misses                       2587                       # DTB read misses
system.cpu.dtb.read_acv                             0                       # DTB read access violations
system.cpu.dtb.read_accesses                  1521745                       # DTB read accesses
system.cpu.dtb.write_hits                      826190                       # DTB write hits
system.cpu.dtb.write_misses                        27                       # DTB write misses
system.cpu.dtb.write_acv                            0                       # DTB write access violations
system.cpu.dtb.write_accesses                  826217                       # DTB write accesses
system.cpu.dtb.data_hits                      2345348                       # DTB hits
system.cpu.dtb.data_misses                       2614                       # DTB misses
system.cpu.dtb.data_acv                             0                       # DTB access violations
system.cpu.dtb.data_accesses                  2347962                       # DTB accesses
system.cpu.itb.fetch_hits                     2533119                       # ITB hits
system.cpu.itb.fetch_misses                      4506                       # ITB misses
system.cpu.itb.fetch_acv                            0                       # ITB acv
system.cpu.itb.fetch_accesses                 2537625                       # ITB accesses
system.cpu.itb.read_hits                            0                       # DTB read hits
system.cpu.itb.read_misses                          0                       # DTB read misses
system.cpu.itb.read_acv                             0                       # DTB read access violations
system.cpu.itb.read_accesses                        0                       # DTB read accesses
system.cpu.itb.write_hits                           0                       # DTB write hits
system.cpu.itb.write_misses                         0                       # DTB write misses
system.cpu.itb.write_acv                            0                       # DTB write access violations
system.cpu.itb.write_accesses                       0                       # DTB write accesses
system.cpu.itb.data_hits                            0                       # DTB hits
system.cpu.itb.data_misses                          0                       # DTB misses
system.cpu.itb.data_acv                             0                       # DTB access violations
system.cpu.itb.data_accesses                        0                       # DTB accesses
system.cpu.workload.numSyscalls                  5471                       # Number of system calls
system.cpu.pwrStateResidencyTicks::ON      5960385500                       # Cumulative time (in ticks) in various power states
system.cpu.numCycles                         11920772                       # number of cpu cycles simulated
system.cpu.numWorkItemsStarted                      0                       # number of work items this cpu started
system.cpu.numWorkItemsCompleted                    0                       # number of work items this cpu completed
system.cpu.fetch.icacheStallCycles            3783959                       # Number of cycles fetch is stalled on an Icache miss
system.cpu.fetch.Insts                       17807283                       # Number of instructions fetch has processed
system.cpu.fetch.Branches                     2555098                       # Number of branches that fetch encountered
system.cpu.fetch.predictedBranches            1508189                       # Number of branches that fetch has predicted taken
system.cpu.fetch.Cycles                       5648050                       # Number of cycles fetch has run and was not squashing or blocked
system.cpu.fetch.SquashCycles                  476286                       # Number of cycles fetch has spent squashing
system.cpu.fetch.MiscStallCycles                 3009                       # Number of cycles fetch has spent waiting on interrupts, or bad addresses, or out of MSHRs
system.cpu.fetch.PendingTrapStallCycles         18706                       # Number of stall cycles due to pending traps
system.cpu.fetch.IcacheWaitRetryStallCycles          122                       # Number of stall cycles due to full MSHR
system.cpu.fetch.CacheLines                   2533119                       # Number of cache lines fetched
system.cpu.fetch.IcacheSquashes                 90902                       # Number of outstanding Icache misses that were squashed
system.cpu.fetch.rateDist::samples            9691989                       # Number of instructions fetched each cycle (Total)
system.cpu.fetch.rateDist::mean              1.837320                       # Number of instructions fetched each cycle (Total)
system.cpu.fetch.rateDist::stdev             2.742671                       # Number of instructions fetched each cycle (Total)
system.cpu.fetch.rateDist::underflows               0      0.00%      0.00% # Number of instructions fetched each cycle (Total)
system.cpu.fetch.rateDist::0                  5812150     59.97%     59.97% # Number of instructions fetched each cycle (Total)
system.cpu.fetch.rateDist::1                   455529      4.70%     64.67% # Number of instructions fetched each cycle (Total)
system.cpu.fetch.rateDist::2                   490690      5.06%     69.73% # Number of instructions fetched each cycle (Total)
system.cpu.fetch.rateDist::3                   555113      5.73%     75.46% # Number of instructions fetched each cycle (Total)
system.cpu.fetch.rateDist::4                   729776      7.53%     82.99% # Number of instructions fetched each cycle (Total)
system.cpu.fetch.rateDist::5                   289741      2.99%     85.98% # Number of instructions fetched each cycle (Total)
system.cpu.fetch.rateDist::6                   166995      1.72%     87.70% # Number of instructions fetched each cycle (Total)
system.cpu.fetch.rateDist::7                   200704      2.07%     89.77% # Number of instructions fetched each cycle (Total)
system.cpu.fetch.rateDist::8                   991291     10.23%    100.00% # Number of instructions fetched each cycle (Total)
system.cpu.fetch.rateDist::overflows                0      0.00%    100.00% # Number of instructions fetched each cycle (Total)
system.cpu.fetch.rateDist::min_value                0                       # Number of instructions fetched each cycle (Total)
system.cpu.fetch.rateDist::max_value                8                       # Number of instructions fetched each cycle (Total)
system.cpu.fetch.rateDist::total              9691989                       # Number of instructions fetched each cycle (Total)
system.cpu.fetch.branchRate                  0.214340                       # Number of branch fetches per cycle
system.cpu.fetch.rate                        1.493803                       # Number of inst fetches per cycle
system.cpu.decode.IdleCycles                  2137199                       # Number of cycles decode is idle
system.cpu.decode.BlockedCycles               3808321                       # Number of cycles decode is blocked
system.cpu.decode.RunCycles                   2324854                       # Number of cycles decode is running
system.cpu.decode.UnblockCycles               1257825                       # Number of cycles decode is unblocking
system.cpu.decode.SquashCycles                 163790                       # Number of cycles decode is squashing
system.cpu.decode.BranchResolved              1059782                       # Number of times decode resolved a branch
system.cpu.decode.BranchMispred                 77396                       # Number of times decode detected a branch misprediction
system.cpu.decode.DecodedInsts               12645253                       # Number of instructions handled by decode
system.cpu.decode.SquashedInsts                218987                       # Number of squashed instructions handled by decode
system.cpu.rename.SquashCycles                 163790                       # Number of cycles rename is squashing
system.cpu.rename.IdleCycles                  2539101                       # Number of cycles rename is idle
system.cpu.rename.BlockCycles                 1606851                       # Number of cycles rename is blocking
system.cpu.rename.serializeStallCycles         551463                       # count of cycles rename stalled for serializing inst
system.cpu.rename.RunCycles                   2850431                       # Number of cycles rename is running
system.cpu.rename.UnblockCycles               1980353                       # Number of cycles rename is unblocking
system.cpu.rename.RenamedInsts               12216263                       # Number of instructions processed by rename
system.cpu.rename.ROBFullEvents               1433087                       # Number of times rename has blocked due to ROB full
system.cpu.rename.LQFullEvents                   4242                       # Number of times rename has blocked due to LQ full
system.cpu.rename.SQFullEvents                  52687                       # Number of times rename has blocked due to SQ full
system.cpu.rename.RenamedOperands             9370362                       # Number of destination operands rename has renamed
system.cpu.rename.RenameLookups              17568708                       # Number of register rename lookups that rename has made
system.cpu.rename.int_rename_lookups         17427240                       # Number of integer rename lookups
system.cpu.rename.fp_rename_lookups            125482                       # Number of floating rename lookups
system.cpu.rename.CommittedMaps               6967320                       # Number of HB maps that are committed
system.cpu.rename.UndoneMaps                  2403042                       # Number of HB maps that are undone due to squashing
system.cpu.rename.serializingInsts              43019                       # count of serializing insts renamed
system.cpu.rename.tempSerializingInsts          15263                       # count of temporary serializing insts renamed
system.cpu.rename.skidInsts                   3881720                       # count of insts added to the skid buffer
system.cpu.memDep0.insertedLoads              1663468                       # Number of loads inserted to the mem dependence unit.
system.cpu.memDep0.insertedStores             1035128                       # Number of stores inserted to the mem dependence unit.
system.cpu.memDep0.conflictingLoads             82094                       # Number of conflicting loads.
system.cpu.memDep0.conflictingStores            17674                       # Number of conflicting stores.
system.cpu.iq.iqInstsAdded                   11537120                       # Number of instructions added to the IQ (excludes non-spec)
system.cpu.iq.iqNonSpecInstsAdded               20032                       # Number of non-speculative instructions added to the IQ
system.cpu.iq.iqInstsIssued                   9591777                       # Number of instructions issued
system.cpu.iq.iqSquashedInstsIssued            503011                       # Number of squashed instructions issued
system.cpu.iq.iqSquashedInstsExamined         2753797                       # Number of squashed instructions iterated over during squash; mainly for profiling
system.cpu.iq.iqSquashedOperandsExamined      2948036                       # Number of squashed operands that are examined and possibly removed from graph
system.cpu.iq.iqSquashedNonSpecRemoved           4668                       # Number of squashed non-spec instructions that were removed
system.cpu.iq.issued_per_cycle::samples       9691989                       # Number of insts issued each cycle
system.cpu.iq.issued_per_cycle::mean         0.989660                       # Number of insts issued each cycle
system.cpu.iq.issued_per_cycle::stdev        0.838449                       # Number of insts issued each cycle
system.cpu.iq.issued_per_cycle::underflows            0      0.00%      0.00% # Number of insts issued each cycle
system.cpu.iq.issued_per_cycle::0             2338545     24.13%     24.13% # Number of insts issued each cycle
system.cpu.iq.issued_per_cycle::1             5870225     60.57%     84.70% # Number of insts issued each cycle
system.cpu.iq.issued_per_cycle::2             1009698     10.42%     95.11% # Number of insts issued each cycle
system.cpu.iq.issued_per_cycle::3              273953      2.83%     97.94% # Number of insts issued each cycle
system.cpu.iq.issued_per_cycle::4              117608      1.21%     99.15% # Number of insts issued each cycle
system.cpu.iq.issued_per_cycle::5               81895      0.84%    100.00% # Number of insts issued each cycle
system.cpu.iq.issued_per_cycle::6                  65      0.00%    100.00% # Number of insts issued each cycle
system.cpu.iq.issued_per_cycle::7                   0      0.00%    100.00% # Number of insts issued each cycle
system.cpu.iq.issued_per_cycle::8                   0      0.00%    100.00% # Number of insts issued each cycle
system.cpu.iq.issued_per_cycle::overflows            0      0.00%    100.00% # Number of insts issued each cycle
system.cpu.iq.issued_per_cycle::min_value            0                       # Number of insts issued each cycle
system.cpu.iq.issued_per_cycle::max_value            6                       # Number of insts issued each cycle
system.cpu.iq.issued_per_cycle::total         9691989                       # Number of insts issued each cycle
system.cpu.iq.fu_full::No_OpClass                   0      0.00%      0.00% # attempts to use FU when none available
system.cpu.iq.fu_full::IntAlu                 6306274     98.91%     98.91% # attempts to use FU when none available
system.cpu.iq.fu_full::IntMult                   8262      0.13%     99.04% # attempts to use FU when none available
system.cpu.iq.fu_full::IntDiv                       0      0.00%     99.04% # attempts to use FU when none available
system.cpu.iq.fu_full::FloatAdd                  3963      0.06%     99.10% # attempts to use FU when none available
system.cpu.iq.fu_full::FloatCmp                   582      0.01%     99.11% # attempts to use FU when none available
system.cpu.iq.fu_full::FloatCvt                  1561      0.02%     99.14% # attempts to use FU when none available
system.cpu.iq.fu_full::FloatMult                  915      0.01%     99.15% # attempts to use FU when none available
system.cpu.iq.fu_full::FloatMultAcc                 0      0.00%     99.15% # attempts to use FU when none available
system.cpu.iq.fu_full::FloatDiv                     0      0.00%     99.15% # attempts to use FU when none available
system.cpu.iq.fu_full::FloatMisc                    0      0.00%     99.15% # attempts to use FU when none available
system.cpu.iq.fu_full::FloatSqrt                   69      0.00%     99.15% # attempts to use FU when none available
system.cpu.iq.fu_full::SimdAdd                      0      0.00%     99.15% # attempts to use FU when none available
system.cpu.iq.fu_full::SimdAddAcc                   0      0.00%     99.15% # attempts to use FU when none available
system.cpu.iq.fu_full::SimdAlu                      0      0.00%     99.15% # attempts to use FU when none available
system.cpu.iq.fu_full::SimdCmp                      0      0.00%     99.15% # attempts to use FU when none available
system.cpu.iq.fu_full::SimdCvt                      0      0.00%     99.15% # attempts to use FU when none available
system.cpu.iq.fu_full::SimdMisc                     0      0.00%     99.15% # attempts to use FU when none available
system.cpu.iq.fu_full::SimdMult                     0      0.00%     99.15% # attempts to use FU when none available
system.cpu.iq.fu_full::SimdMultAcc                  0      0.00%     99.15% # attempts to use FU when none available
system.cpu.iq.fu_full::SimdShift                    0      0.00%     99.15% # attempts to use FU when none available
system.cpu.iq.fu_full::SimdShiftAcc                 0      0.00%     99.15% # attempts to use FU when none available
system.cpu.iq.fu_full::SimdSqrt                     0      0.00%     99.15% # attempts to use FU when none available
system.cpu.iq.fu_full::SimdFloatAdd                 0      0.00%     99.15% # attempts to use FU when none available
system.cpu.iq.fu_full::SimdFloatAlu                 0      0.00%     99.15% # attempts to use FU when none available
system.cpu.iq.fu_full::SimdFloatCmp                 0      0.00%     99.15% # attempts to use FU when none available
system.cpu.iq.fu_full::SimdFloatCvt                 0      0.00%     99.15% # attempts to use FU when none available
system.cpu.iq.fu_full::SimdFloatDiv                 0      0.00%     99.15% # attempts to use FU when none available
system.cpu.iq.fu_full::SimdFloatMisc                0      0.00%     99.15% # attempts to use FU when none available
system.cpu.iq.fu_full::SimdFloatMult                0      0.00%     99.15% # attempts to use FU when none available
system.cpu.iq.fu_full::SimdFloatMultAcc             0      0.00%     99.15% # attempts to use FU when none available
system.cpu.iq.fu_full::SimdFloatSqrt                0      0.00%     99.15% # attempts to use FU when none available
system.cpu.iq.fu_full::MemRead                  20277      0.32%     99.47% # attempts to use FU when none available
system.cpu.iq.fu_full::MemWrite                 26315      0.41%     99.88% # attempts to use FU when none available
system.cpu.iq.fu_full::FloatMemRead                37      0.00%     99.88% # attempts to use FU when none available
system.cpu.iq.fu_full::FloatMemWrite             7534      0.12%    100.00% # attempts to use FU when none available
system.cpu.iq.fu_full::IprAccess                    0      0.00%    100.00% # attempts to use FU when none available
system.cpu.iq.fu_full::InstPrefetch                 0      0.00%    100.00% # attempts to use FU when none available
system.cpu.iq.FU_type_0::No_OpClass              2273      0.02%      0.02% # Type of FU issued
system.cpu.iq.FU_type_0::IntAlu               7056623     73.57%     73.59% # Type of FU issued
system.cpu.iq.FU_type_0::IntMult                76360      0.80%     74.39% # Type of FU issued
system.cpu.iq.FU_type_0::IntDiv                     0      0.00%     74.39% # Type of FU issued
system.cpu.iq.FU_type_0::FloatAdd               34366      0.36%     74.75% # Type of FU issued
system.cpu.iq.FU_type_0::FloatCmp                4699      0.05%     74.80% # Type of FU issued
system.cpu.iq.FU_type_0::FloatCvt                9312      0.10%     74.89% # Type of FU issued
system.cpu.iq.FU_type_0::FloatMult               8578      0.09%     74.98% # Type of FU issued
system.cpu.iq.FU_type_0::FloatMultAcc               0      0.00%     74.98% # Type of FU issued
system.cpu.iq.FU_type_0::FloatDiv                1468      0.02%     75.00% # Type of FU issued
system.cpu.iq.FU_type_0::FloatMisc                  0      0.00%     75.00% # Type of FU issued
system.cpu.iq.FU_type_0::FloatSqrt                252      0.00%     75.00% # Type of FU issued
system.cpu.iq.FU_type_0::SimdAdd                    0      0.00%     75.00% # Type of FU issued
system.cpu.iq.FU_type_0::SimdAddAcc                 0      0.00%     75.00% # Type of FU issued
system.cpu.iq.FU_type_0::SimdAlu                    0      0.00%     75.00% # Type of FU issued
system.cpu.iq.FU_type_0::SimdCmp                    0      0.00%     75.00% # Type of FU issued
system.cpu.iq.FU_type_0::SimdCvt                    0      0.00%     75.00% # Type of FU issued
system.cpu.iq.FU_type_0::SimdMisc                   0      0.00%     75.00% # Type of FU issued
system.cpu.iq.FU_type_0::SimdMult                   0      0.00%     75.00% # Type of FU issued
system.cpu.iq.FU_type_0::SimdMultAcc                0      0.00%     75.00% # Type of FU issued
system.cpu.iq.FU_type_0::SimdShift                  0      0.00%     75.00% # Type of FU issued
system.cpu.iq.FU_type_0::SimdShiftAcc               0      0.00%     75.00% # Type of FU issued
system.cpu.iq.FU_type_0::SimdSqrt                   0      0.00%     75.00% # Type of FU issued
system.cpu.iq.FU_type_0::SimdFloatAdd               0      0.00%     75.00% # Type of FU issued
system.cpu.iq.FU_type_0::SimdFloatAlu               0      0.00%     75.00% # Type of FU issued
system.cpu.iq.FU_type_0::SimdFloatCmp               0      0.00%     75.00% # Type of FU issued
system.cpu.iq.FU_type_0::SimdFloatCvt               0      0.00%     75.00% # Type of FU issued
system.cpu.iq.FU_type_0::SimdFloatDiv               0      0.00%     75.00% # Type of FU issued
system.cpu.iq.FU_type_0::SimdFloatMisc              0      0.00%     75.00% # Type of FU issued
system.cpu.iq.FU_type_0::SimdFloatMult              0      0.00%     75.00% # Type of FU issued
system.cpu.iq.FU_type_0::SimdFloatMultAcc            0      0.00%     75.00% # Type of FU issued
system.cpu.iq.FU_type_0::SimdFloatSqrt              0      0.00%     75.00% # Type of FU issued
system.cpu.iq.FU_type_0::MemRead              1539707     16.05%     91.05% # Type of FU issued
system.cpu.iq.FU_type_0::MemWrite              822449      8.57%     99.63% # Type of FU issued
system.cpu.iq.FU_type_0::FloatMemRead           17464      0.18%     99.81% # Type of FU issued
system.cpu.iq.FU_type_0::FloatMemWrite          18226      0.19%    100.00% # Type of FU issued
system.cpu.iq.FU_type_0::IprAccess                  0      0.00%    100.00% # Type of FU issued
system.cpu.iq.FU_type_0::InstPrefetch               0      0.00%    100.00% # Type of FU issued
system.cpu.iq.FU_type_0::total                9591777                       # Type of FU issued
system.cpu.iq.rate                           0.804627                       # Inst issue rate
system.cpu.iq.fu_busy_cnt                     6375789                       # FU busy when requested
system.cpu.iq.fu_busy_rate                   0.664714                       # FU busy rate (busy events/executed inst)
system.cpu.iq.int_inst_queue_reads           35550948                       # Number of integer instruction queue reads
system.cpu.iq.int_inst_queue_writes          14204673                       # Number of integer instruction queue writes
system.cpu.iq.int_inst_queue_wakeup_accesses      9239820                       # Number of integer instruction queue wakeup accesses
system.cpu.iq.fp_inst_queue_reads              203395                       # Number of floating instruction queue reads
system.cpu.iq.fp_inst_queue_writes             106465                       # Number of floating instruction queue writes
system.cpu.iq.fp_inst_queue_wakeup_accesses        92917                       # Number of floating instruction queue wakeup accesses
system.cpu.iq.vec_inst_queue_reads                  0                       # Number of vector instruction queue reads
system.cpu.iq.vec_inst_queue_writes                 0                       # Number of vector instruction queue writes
system.cpu.iq.vec_inst_queue_wakeup_accesses            0                       # Number of vector instruction queue wakeup accesses
system.cpu.iq.int_alu_accesses               15856267                       # Number of integer alu accesses
system.cpu.iq.fp_alu_accesses                  109026                       # Number of floating point alu accesses
system.cpu.iq.vec_alu_accesses                      0                       # Number of vector alu accesses
system.cpu.iew.lsq.thread0.forwLoads            87621                       # Number of loads that had data forwarded from stores
system.cpu.iew.lsq.thread0.invAddrLoads             0                       # Number of loads ignored due to an invalid address
system.cpu.iew.lsq.thread0.squashedLoads       442923                       # Number of loads squashed
system.cpu.iew.lsq.thread0.ignoredResponses          131                       # Number of memory responses ignored because the instruction is squashed
system.cpu.iew.lsq.thread0.memOrderViolation          194                       # Number of memory ordering violations
system.cpu.iew.lsq.thread0.squashedStores       269758                       # Number of stores squashed
system.cpu.iew.lsq.thread0.invAddrSwpfs             0                       # Number of software prefetches ignored due to an invalid address
system.cpu.iew.lsq.thread0.blockedLoads             0                       # Number of blocked loads due to partial load-store forwarding
system.cpu.iew.lsq.thread0.rescheduledLoads         5984                       # Number of loads that were rescheduled
system.cpu.iew.lsq.thread0.cacheBlocked            26                       # Number of times an access to memory failed due to the cache being blocked
system.cpu.iew.iewIdleCycles                        0                       # Number of cycles IEW is idle
system.cpu.iew.iewSquashCycles                 163790                       # Number of cycles IEW is squashing
system.cpu.iew.iewBlockCycles                       0                       # Number of cycles IEW is blocking
system.cpu.iew.iewUnblockCycles                 13743                       # Number of cycles IEW is unblocking
system.cpu.iew.iewDispatchedInsts            11783053                       # Number of instructions dispatched to IQ
system.cpu.iew.iewDispSquashedInsts            201674                       # Number of squashed instructions skipped by dispatch
system.cpu.iew.iewDispLoadInsts               1663468                       # Number of dispatched load instructions
system.cpu.iew.iewDispStoreInsts              1035128                       # Number of dispatched store instructions
system.cpu.iew.iewDispNonSpecInsts              13759                       # Number of dispatched non-speculative instructions
system.cpu.iew.iewIQFullEvents                      0                       # Number of times the IQ has become full, causing a stall
system.cpu.iew.iewLSQFullEvents                 13743                       # Number of times the LSQ has become full, causing a stall
system.cpu.iew.memOrderViolationEvents            194                       # Number of memory order violations
system.cpu.iew.predictedTakenIncorrect          58312                       # Number of branches that were predicted taken incorrectly
system.cpu.iew.predictedNotTakenIncorrect       114074                       # Number of branches that were predicted not taken incorrectly
system.cpu.iew.branchMispredicts               172386                       # Number of branch mispredicts detected at execute
system.cpu.iew.iewExecutedInsts               9403069                       # Number of executed instructions
system.cpu.iew.iewExecLoadInsts               1521745                       # Number of load instructions executed
system.cpu.iew.iewExecSquashedInsts            188708                       # Number of squashed instructions skipped in execute
system.cpu.iew.exec_swp                             0                       # number of swp insts executed
system.cpu.iew.exec_nop                        225901                       # number of nop insts executed
system.cpu.iew.exec_refs                      2347962                       # number of memory reference insts executed
system.cpu.iew.exec_branches                  1208174                       # Number of branches executed
system.cpu.iew.exec_stores                     826217                       # Number of stores executed
system.cpu.iew.exec_rate                     0.788797                       # Inst execution rate
system.cpu.iew.wb_sent                        9337610                       # cumulative count of insts sent to commit
system.cpu.iew.wb_count                       9332737                       # cumulative count of insts written-back
system.cpu.iew.wb_producers                   6456469                       # num instructions producing a value
system.cpu.iew.wb_consumers                   9627781                       # num instructions consuming a value
system.cpu.iew.wb_rate                       0.782897                       # insts written-back per cycle
system.cpu.iew.wb_fanout                     0.670608                       # average fanout of values written-back
system.cpu.commit.commitSquashedInsts         2828867                       # The number of squashed insts skipped by commit
system.cpu.commit.commitNonSpecStalls           15364                       # The number of times commit has been forced to stall to communicate backwards
system.cpu.commit.branchMispredicts            163569                       # The number of times a branch was mispredicted
system.cpu.commit.committed_per_cycle::samples      9528199                       # Number of insts commited each cycle
system.cpu.commit.committed_per_cycle::mean     0.939743                       # Number of insts commited each cycle
system.cpu.commit.committed_per_cycle::stdev     1.126642                       # Number of insts commited each cycle
system.cpu.commit.committed_per_cycle::underflows            0      0.00%      0.00% # Number of insts commited each cycle
system.cpu.commit.committed_per_cycle::0      3112317     32.66%     32.66% # Number of insts commited each cycle
system.cpu.commit.committed_per_cycle::1      5280064     55.42%     88.08% # Number of insts commited each cycle
system.cpu.commit.committed_per_cycle::2       582192      6.11%     94.19% # Number of insts commited each cycle
system.cpu.commit.committed_per_cycle::3       204611      2.15%     96.34% # Number of insts commited each cycle
system.cpu.commit.committed_per_cycle::4       122074      1.28%     97.62% # Number of insts commited each cycle
system.cpu.commit.committed_per_cycle::5       103729      1.09%     98.71% # Number of insts commited each cycle
system.cpu.commit.committed_per_cycle::6        39719      0.42%     99.12% # Number of insts commited each cycle
system.cpu.commit.committed_per_cycle::7        17420      0.18%     99.31% # Number of insts commited each cycle
system.cpu.commit.committed_per_cycle::8        66073      0.69%    100.00% # Number of insts commited each cycle
system.cpu.commit.committed_per_cycle::overflows            0      0.00%    100.00% # Number of insts commited each cycle
system.cpu.commit.committed_per_cycle::min_value            0                       # Number of insts commited each cycle
system.cpu.commit.committed_per_cycle::max_value            8                       # Number of insts commited each cycle
system.cpu.commit.committed_per_cycle::total      9528199                       # Number of insts commited each cycle
system.cpu.commit.committedInsts              8954060                       # Number of instructions committed
system.cpu.commit.committedOps                8954060                       # Number of ops (including micro ops) committed
system.cpu.commit.swp_count                         0                       # Number of s/w prefetches committed
system.cpu.commit.refs                        1985915                       # Number of memory references committed
system.cpu.commit.loads                       1220545                       # Number of loads committed
system.cpu.commit.membars                        4946                       # Number of memory barriers committed
system.cpu.commit.branches                    1156178                       # Number of branches committed
system.cpu.commit.vec_insts                         0                       # Number of committed Vector instructions.
system.cpu.commit.fp_insts                      87943                       # Number of committed floating point instructions.
system.cpu.commit.int_insts                   8635183                       # Number of committed integer instructions.
system.cpu.commit.function_calls                90993                       # Number of function calls committed.
system.cpu.commit.op_class_0::No_OpClass       150718      1.68%      1.68% # Class of committed instruction
system.cpu.commit.op_class_0::IntAlu          6693535     74.75%     76.44% # Class of committed instruction
system.cpu.commit.op_class_0::IntMult           65686      0.73%     77.17% # Class of committed instruction
system.cpu.commit.op_class_0::IntDiv                0      0.00%     77.17% # Class of committed instruction
system.cpu.commit.op_class_0::FloatAdd          30763      0.34%     77.51% # Class of committed instruction
system.cpu.commit.op_class_0::FloatCmp           3934      0.04%     77.56% # Class of committed instruction
system.cpu.commit.op_class_0::FloatCvt           8299      0.09%     77.65% # Class of committed instruction
system.cpu.commit.op_class_0::FloatMult          8547      0.10%     77.75% # Class of committed instruction
system.cpu.commit.op_class_0::FloatMultAcc            0      0.00%     77.75% # Class of committed instruction
system.cpu.commit.op_class_0::FloatDiv           1468      0.02%     77.76% # Class of committed instruction
system.cpu.commit.op_class_0::FloatMisc             0      0.00%     77.76% # Class of committed instruction
system.cpu.commit.op_class_0::FloatSqrt           248      0.00%     77.77% # Class of committed instruction
system.cpu.commit.op_class_0::SimdAdd               0      0.00%     77.77% # Class of committed instruction
system.cpu.commit.op_class_0::SimdAddAcc            0      0.00%     77.77% # Class of committed instruction
system.cpu.commit.op_class_0::SimdAlu               0      0.00%     77.77% # Class of committed instruction
system.cpu.commit.op_class_0::SimdCmp               0      0.00%     77.77% # Class of committed instruction
system.cpu.commit.op_class_0::SimdCvt               0      0.00%     77.77% # Class of committed instruction
system.cpu.commit.op_class_0::SimdMisc              0      0.00%     77.77% # Class of committed instruction
system.cpu.commit.op_class_0::SimdMult              0      0.00%     77.77% # Class of committed instruction
system.cpu.commit.op_class_0::SimdMultAcc            0      0.00%     77.77% # Class of committed instruction
system.cpu.commit.op_class_0::SimdShift             0      0.00%     77.77% # Class of committed instruction
system.cpu.commit.op_class_0::SimdShiftAcc            0      0.00%     77.77% # Class of committed instruction
system.cpu.commit.op_class_0::SimdSqrt              0      0.00%     77.77% # Class of committed instruction
system.cpu.commit.op_class_0::SimdFloatAdd            0      0.00%     77.77% # Class of committed instruction
system.cpu.commit.op_class_0::SimdFloatAlu            0      0.00%     77.77% # Class of committed instruction
system.cpu.commit.op_class_0::SimdFloatCmp            0      0.00%     77.77% # Class of committed instruction
system.cpu.commit.op_class_0::SimdFloatCvt            0      0.00%     77.77% # Class of committed instruction
system.cpu.commit.op_class_0::SimdFloatDiv            0      0.00%     77.77% # Class of committed instruction
system.cpu.commit.op_class_0::SimdFloatMisc            0      0.00%     77.77% # Class of committed instruction
system.cpu.commit.op_class_0::SimdFloatMult            0      0.00%     77.77% # Class of committed instruction
system.cpu.commit.op_class_0::SimdFloatMultAcc            0      0.00%     77.77% # Class of committed instruction
system.cpu.commit.op_class_0::SimdFloatSqrt            0      0.00%     77.77% # Class of committed instruction
system.cpu.commit.op_class_0::MemRead         1209033     13.50%     91.27% # Class of committed instruction
system.cpu.commit.op_class_0::MemWrite         747145      8.34%     99.61% # Class of committed instruction
system.cpu.commit.op_class_0::FloatMemRead        16458      0.18%     99.80% # Class of committed instruction
system.cpu.commit.op_class_0::FloatMemWrite        18226      0.20%    100.00% # Class of committed instruction
system.cpu.commit.op_class_0::IprAccess             0      0.00%    100.00% # Class of committed instruction
system.cpu.commit.op_class_0::InstPrefetch            0      0.00%    100.00% # Class of committed instruction
system.cpu.commit.op_class_0::total           8954060                       # Class of committed instruction
system.cpu.commit.bw_lim_events                 66073                       # number cycles where commit BW limit reached
system.cpu.rob.rob_reads                     21244247                       # The number of ROB reads
system.cpu.rob.rob_writes                    23729644                       # The number of ROB writes
system.cpu.timesIdled                           26351                       # Number of times that the entire CPU went into an idle state and unscheduled itself
system.cpu.idleCycles                         2228783                       # Total number of cycles that the CPU has spent unscheduled due to idling
system.cpu.committedInsts                     8803354                       # Number of Instructions Simulated
system.cpu.committedOps                       8803354                       # Number of Ops (including micro ops) Simulated
system.cpu.cpi                               1.354117                       # CPI: Cycles Per Instruction
system.cpu.cpi_total                         1.354117                       # CPI: Total CPI of All Threads
system.cpu.ipc                               0.738489                       # IPC: Instructions Per Cycle
system.cpu.ipc_total                         0.738489                       # IPC: Total IPC of All Threads
system.cpu.int_regfile_reads                 13812794                       # number of integer regfile reads
system.cpu.int_regfile_writes                 7347520                       # number of integer regfile writes
system.cpu.fp_regfile_reads                    117647                       # number of floating regfile reads
system.cpu.fp_regfile_writes                    63133                       # number of floating regfile writes
system.cpu.misc_regfile_reads                   46737                       # number of misc regfile reads
system.cpu.misc_regfile_writes                   9896                       # number of misc regfile writes
system.cpu.dcache.tags.pwrStateResidencyTicks::UNDEFINED   5960385500                       # Cumulative time (in ticks) in various power states
system.cpu.dcache.tags.replacements               222                       # number of replacements
system.cpu.dcache.tags.tagsinuse           623.118683                       # Cycle average of tags in use
system.cpu.dcache.tags.total_refs               21826                       # Total number of references to valid blocks.
system.cpu.dcache.tags.sampled_refs               222                       # Sample count of references to valid blocks.
system.cpu.dcache.tags.avg_refs             98.315315                       # Average number of references to valid blocks.
system.cpu.dcache.tags.warmup_cycle            160000                       # Cycle when the warmup percentage was hit.
system.cpu.dcache.tags.occ_blocks::cpu.data   623.118683                       # Average occupied blocks per requestor
system.cpu.dcache.tags.occ_percent::cpu.data     0.608514                       # Average percentage of cache occupancy
system.cpu.dcache.tags.occ_percent::total     0.608514                       # Average percentage of cache occupancy
system.cpu.dcache.tags.occ_task_id_blocks::1024          744                       # Occupied blocks per task id
system.cpu.dcache.tags.age_task_id_blocks_1024::0           12                       # Occupied blocks per task id
system.cpu.dcache.tags.age_task_id_blocks_1024::3          732                       # Occupied blocks per task id
system.cpu.dcache.tags.occ_task_id_percent::1024     0.726562                       # Percentage of cache occupancy per task id
system.cpu.dcache.tags.tag_accesses           4382762                       # Number of tag accesses
system.cpu.dcache.tags.data_accesses          4382762                       # Number of data accesses
system.cpu.dcache.pwrStateResidencyTicks::UNDEFINED   5960385500                       # Cumulative time (in ticks) in various power states
system.cpu.dcache.ReadReq_hits::cpu.data      1419246                       # number of ReadReq hits
system.cpu.dcache.ReadReq_hits::total         1419246                       # number of ReadReq hits
system.cpu.dcache.WriteReq_hits::cpu.data       759436                       # number of WriteReq hits
system.cpu.dcache.WriteReq_hits::total         759436                       # number of WriteReq hits
system.cpu.dcache.LoadLockedReq_hits::cpu.data         4944                       # number of LoadLockedReq hits
system.cpu.dcache.LoadLockedReq_hits::total         4944                       # number of LoadLockedReq hits
system.cpu.dcache.StoreCondReq_hits::cpu.data         4946                       # number of StoreCondReq hits
system.cpu.dcache.StoreCondReq_hits::total         4946                       # number of StoreCondReq hits
system.cpu.dcache.demand_hits::cpu.data       2178682                       # number of demand (read+write) hits
system.cpu.dcache.demand_hits::total          2178682                       # number of demand (read+write) hits
system.cpu.dcache.overall_hits::cpu.data      2178682                       # number of overall hits
system.cpu.dcache.overall_hits::total         2178682                       # number of overall hits
system.cpu.dcache.ReadReq_misses::cpu.data         1336                       # number of ReadReq misses
system.cpu.dcache.ReadReq_misses::total          1336                       # number of ReadReq misses
system.cpu.dcache.WriteReq_misses::cpu.data          988                       # number of WriteReq misses
system.cpu.dcache.WriteReq_misses::total          988                       # number of WriteReq misses
system.cpu.dcache.LoadLockedReq_misses::cpu.data            2                       # number of LoadLockedReq misses
system.cpu.dcache.LoadLockedReq_misses::total            2                       # number of LoadLockedReq misses
system.cpu.dcache.demand_misses::cpu.data         2324                       # number of demand (read+write) misses
system.cpu.dcache.demand_misses::total           2324                       # number of demand (read+write) misses
system.cpu.dcache.overall_misses::cpu.data         2324                       # number of overall misses
system.cpu.dcache.overall_misses::total          2324                       # number of overall misses
system.cpu.dcache.ReadReq_miss_latency::cpu.data     94713500                       # number of ReadReq miss cycles
system.cpu.dcache.ReadReq_miss_latency::total     94713500                       # number of ReadReq miss cycles
system.cpu.dcache.WriteReq_miss_latency::cpu.data     73497000                       # number of WriteReq miss cycles
[...]
system.cpu.dcache.demand_mshr_misses::total          965                       # number of demand (read+write) MSHR misses
system.cpu.dcache.overall_mshr_misses::cpu.data          965                       # number of overall MSHR misses
system.cpu.dcache.overall_mshr_misses::total          965                       # number of overall MSHR misses
system.cpu.dcache.ReadReq_mshr_miss_latency::cpu.data     56546500                       # number of ReadReq MSHR miss cycles
system.cpu.dcache.ReadReq_mshr_miss_latency::total     56546500                       # number of ReadReq MSHR miss cycles
system.cpu.dcache.WriteReq_mshr_miss_latency::cpu.data     21465000                       # number of WriteReq MSHR miss cycles
system.cpu.dcache.WriteReq_mshr_miss_latency::total     21465000                       # number of WriteReq MSHR miss cycles
system.cpu.dcache.LoadLockedReq_mshr_miss_latency::cpu.data       124000                       # number of LoadLockedReq MSHR miss cycles
system.cpu.dcache.LoadLockedReq_mshr_miss_latency::total       124000                       # number of LoadLockedReq MSHR miss cycles
system.cpu.dcache.demand_mshr_miss_latency::cpu.data     78011500                       # number of demand (read+write) MSHR miss cycles
system.cpu.dcache.demand_mshr_miss_latency::total     78011500                       # number of demand (read+write) MSHR miss cycles
system.cpu.dcache.overall_mshr_miss_latency::cpu.data     78011500                       # number of overall MSHR miss cycles
system.cpu.dcache.overall_mshr_miss_latency::total     78011500                       # number of overall MSHR miss cycles
system.cpu.dcache.ReadReq_mshr_miss_rate::cpu.data     0.000498                       # mshr miss rate for ReadReq accesses
system.cpu.dcache.ReadReq_mshr_miss_rate::total     0.000498                       # mshr miss rate for ReadReq accesses
system.cpu.dcache.WriteReq_mshr_miss_rate::cpu.data     0.000339                       # mshr miss rate for WriteReq accesses
system.cpu.dcache.WriteReq_mshr_miss_rate::total     0.000339                       # mshr miss rate for WriteReq accesses
system.cpu.dcache.LoadLockedReq_mshr_miss_rate::cpu.data     0.000404                       # mshr miss rate for LoadLockedReq accesses
system.cpu.dcache.LoadLockedReq_mshr_miss_rate::total     0.000404                       # mshr miss rate for LoadLockedReq accesses
system.cpu.dcache.demand_mshr_miss_rate::cpu.data     0.000442                       # mshr miss rate for demand accesses
system.cpu.dcache.demand_mshr_miss_rate::total     0.000442                       # mshr miss rate for demand accesses
system.cpu.dcache.overall_mshr_miss_rate::cpu.data     0.000442                       # mshr miss rate for overall accesses
system.cpu.dcache.overall_mshr_miss_rate::total     0.000442                       # mshr miss rate for overall accesses
system.cpu.dcache.ReadReq_avg_mshr_miss_latency::cpu.data 79980.905233                       # average ReadReq mshr miss latency
system.cpu.dcache.ReadReq_avg_mshr_miss_latency::total 79980.905233                       # average ReadReq mshr miss latency
system.cpu.dcache.WriteReq_avg_mshr_miss_latency::cpu.data 83197.674419                       # average WriteReq mshr miss latency
system.cpu.dcache.WriteReq_avg_mshr_miss_latency::total 83197.674419                       # average WriteReq mshr miss latency
system.cpu.dcache.LoadLockedReq_avg_mshr_miss_latency::cpu.data        62000                       # average LoadLockedReq mshr miss latency
system.cpu.dcache.LoadLockedReq_avg_mshr_miss_latency::total        62000                       # average LoadLockedReq mshr miss latency
system.cpu.dcache.demand_avg_mshr_miss_latency::cpu.data 80840.932642                       # average overall mshr miss latency
system.cpu.dcache.demand_avg_mshr_miss_latency::total 80840.932642                       # average overall mshr miss latency
system.cpu.dcache.overall_avg_mshr_miss_latency::cpu.data 80840.932642                       # average overall mshr miss latency
system.cpu.dcache.overall_avg_mshr_miss_latency::total 80840.932642                       # average overall mshr miss latency
system.cpu.icache.tags.pwrStateResidencyTicks::UNDEFINED   5960385500                       # Cumulative time (in ticks) in various power states
system.cpu.icache.tags.replacements             45086                       # number of replacements
system.cpu.icache.tags.tagsinuse           498.110170                       # Cycle average of tags in use
system.cpu.icache.tags.total_refs              880554                       # Total number of references to valid blocks.
system.cpu.icache.tags.sampled_refs             45086                       # Sample count of references to valid blocks.
system.cpu.icache.tags.avg_refs             19.530542                       # Average number of references to valid blocks.
system.cpu.icache.tags.warmup_cycle             77000                       # Cycle when the warmup percentage was hit.
system.cpu.icache.tags.occ_blocks::cpu.inst   498.110170                       # Average occupied blocks per requestor
system.cpu.icache.tags.occ_percent::cpu.inst     0.972871                       # Average percentage of cache occupancy
system.cpu.icache.tags.occ_percent::total     0.972871                       # Average percentage of cache occupancy
system.cpu.icache.tags.occ_task_id_blocks::1024          509                       # Occupied blocks per task id
system.cpu.icache.tags.age_task_id_blocks_1024::0           87                       # Occupied blocks per task id
system.cpu.icache.tags.age_task_id_blocks_1024::1            1                       # Occupied blocks per task id
system.cpu.icache.tags.age_task_id_blocks_1024::2           14                       # Occupied blocks per task id
system.cpu.icache.tags.age_task_id_blocks_1024::3          407                       # Occupied blocks per task id
system.cpu.icache.tags.occ_task_id_percent::1024     0.994141                       # Percentage of cache occupancy per task id
system.cpu.icache.tags.tag_accesses           5111833                       # Number of tag accesses
system.cpu.icache.tags.data_accesses          5111833                       # Number of data accesses
system.cpu.icache.pwrStateResidencyTicks::UNDEFINED   5960385500                       # Cumulative time (in ticks) in various power states
system.cpu.icache.ReadReq_hits::cpu.inst      2471140                       # number of ReadReq hits
system.cpu.icache.ReadReq_hits::total         2471140                       # number of ReadReq hits
system.cpu.icache.demand_hits::cpu.inst       2471140                       # number of demand (read+write) hits
system.cpu.icache.demand_hits::total          2471140                       # number of demand (read+write) hits
system.cpu.icache.overall_hits::cpu.inst      2471140                       # number of overall hits
system.cpu.icache.overall_hits::total         2471140                       # number of overall hits
system.cpu.icache.ReadReq_misses::cpu.inst        61979                       # number of ReadReq misses
system.cpu.icache.ReadReq_misses::total         61979                       # number of ReadReq misses
system.cpu.icache.demand_misses::cpu.inst        61979                       # number of demand (read+write) misses
system.cpu.icache.demand_misses::total          61979                       # number of demand (read+write) misses
system.cpu.icache.overall_misses::cpu.inst        61979                       # number of overall misses
system.cpu.icache.overall_misses::total         61979                       # number of overall misses
system.cpu.icache.ReadReq_miss_latency::cpu.inst   3306696998                       # number of ReadReq miss cycles
system.cpu.icache.ReadReq_miss_latency::total   3306696998                       # number of ReadReq miss cycles
system.cpu.icache.demand_miss_latency::cpu.inst   3306696998                       # number of demand (read+write) miss cycles
system.cpu.icache.demand_miss_latency::total   3306696998                       # number of demand (read+write) miss cycles
system.cpu.icache.overall_miss_latency::cpu.inst   3306696998                       # number of overall miss cycles
system.cpu.icache.overall_miss_latency::total   3306696998                       # number of overall miss cycles
system.cpu.icache.ReadReq_accesses::cpu.inst      2533119                       # number of ReadReq accesses(hits+misses)
system.cpu.icache.ReadReq_accesses::total      2533119                       # number of ReadReq accesses(hits+misses)
system.cpu.icache.demand_accesses::cpu.inst      2533119                       # number of demand (read+write) accesses
system.cpu.icache.demand_accesses::total      2533119                       # number of demand (read+write) accesses
system.cpu.icache.overall_accesses::cpu.inst      2533119                       # number of overall (read+write) accesses
system.cpu.icache.overall_accesses::total      2533119                       # number of overall (read+write) accesses
system.cpu.icache.ReadReq_miss_rate::cpu.inst     0.024467                       # miss rate for ReadReq accesses
system.cpu.icache.ReadReq_miss_rate::total     0.024467                       # miss rate for ReadReq accesses
system.cpu.icache.demand_miss_rate::cpu.inst     0.024467                       # miss rate for demand accesses
system.cpu.icache.demand_miss_rate::total     0.024467                       # miss rate for demand accesses
system.cpu.icache.overall_miss_rate::cpu.inst     0.024467                       # miss rate for overall accesses
system.cpu.icache.overall_miss_rate::total     0.024467                       # miss rate for overall accesses
system.cpu.icache.ReadReq_avg_miss_latency::cpu.inst 53351.893351                       # average ReadReq miss latency
system.cpu.icache.ReadReq_avg_miss_latency::total 53351.893351                       # average ReadReq miss latency
system.cpu.icache.demand_avg_miss_latency::cpu.inst 53351.893351                       # average overall miss latency
system.cpu.icache.demand_avg_miss_latency::total 53351.893351                       # average overall miss latency
system.cpu.icache.overall_avg_miss_latency::cpu.inst 53351.893351                       # average overall miss latency
system.cpu.icache.overall_avg_miss_latency::total 53351.893351                       # average overall miss latency
system.cpu.icache.blocked_cycles::no_mshrs         3104                       # number of cycles access was blocked
system.cpu.icache.blocked_cycles::no_targets            0                       # number of cycles access was blocked
system.cpu.icache.blocked::no_mshrs                59                       # number of cycles access was blocked
system.cpu.icache.blocked::no_targets               0                       # number of cycles access was blocked
system.cpu.icache.avg_blocked_cycles::no_mshrs    52.610169                       # average number of cycles each access was blocked
system.cpu.icache.avg_blocked_cycles::no_targets          nan                       # average number of cycles each access was blocked
system.cpu.icache.writebacks::writebacks        45086                       # number of writebacks
system.cpu.icache.writebacks::total             45086                       # number of writebacks
system.cpu.icache.ReadReq_mshr_hits::cpu.inst        16383                       # number of ReadReq MSHR hits
system.cpu.icache.ReadReq_mshr_hits::total        16383                       # number of ReadReq MSHR hits
system.cpu.icache.demand_mshr_hits::cpu.inst        16383                       # number of demand (read+write) MSHR hits
system.cpu.icache.demand_mshr_hits::total        16383                       # number of demand (read+write) MSHR hits
system.cpu.icache.overall_mshr_hits::cpu.inst        16383                       # number of overall MSHR hits
system.cpu.icache.overall_mshr_hits::total        16383                       # number of overall MSHR hits
system.cpu.icache.ReadReq_mshr_misses::cpu.inst        45596                       # number of ReadReq MSHR misses
system.cpu.icache.ReadReq_mshr_misses::total        45596                       # number of ReadReq MSHR misses
system.cpu.icache.demand_mshr_misses::cpu.inst        45596                       # number of demand (read+write) MSHR misses
system.cpu.icache.demand_mshr_misses::total        45596                       # number of demand (read+write) MSHR misses
system.cpu.icache.overall_mshr_misses::cpu.inst        45596                       # number of overall MSHR misses
system.cpu.icache.overall_mshr_misses::total        45596                       # number of overall MSHR misses
system.cpu.icache.ReadReq_mshr_miss_latency::cpu.inst   2499713500                       # number of ReadReq MSHR miss cycles
system.cpu.icache.ReadReq_mshr_miss_latency::total   2499713500                       # number of ReadReq MSHR miss cycles
system.cpu.icache.demand_mshr_miss_latency::cpu.inst   2499713500                       # number of demand (read+write) MSHR miss cycles
system.cpu.icache.demand_mshr_miss_latency::total   2499713500                       # number of demand (read+write) MSHR miss cycles
system.cpu.icache.overall_mshr_miss_latency::cpu.inst   2499713500                       # number of overall MSHR miss cycles
system.cpu.icache.overall_mshr_miss_latency::total   2499713500                       # number of overall MSHR miss cycles
system.cpu.icache.ReadReq_mshr_miss_rate::cpu.inst     0.018000                       # mshr miss rate for ReadReq accesses
system.cpu.icache.ReadReq_mshr_miss_rate::total     0.018000                       # mshr miss rate for ReadReq accesses
system.cpu.icache.demand_mshr_miss_rate::cpu.inst     0.018000                       # mshr miss rate for demand accesses
system.cpu.icache.demand_mshr_miss_rate::total     0.018000                       # mshr miss rate for demand accesses
system.cpu.icache.overall_mshr_miss_rate::cpu.inst     0.018000                       # mshr miss rate for overall accesses
system.cpu.icache.overall_mshr_miss_rate::total     0.018000                       # mshr miss rate for overall accesses
system.cpu.icache.ReadReq_avg_mshr_miss_latency::cpu.inst 54823.087552                       # average ReadReq mshr miss latency
system.cpu.icache.ReadReq_avg_mshr_miss_latency::total 54823.087552                       # average ReadReq mshr miss latency
system.cpu.icache.demand_avg_mshr_miss_latency::cpu.inst 54823.087552                       # average overall mshr miss latency
system.cpu.icache.demand_avg_mshr_miss_latency::total 54823.087552                       # average overall mshr miss latency
system.cpu.icache.overall_avg_mshr_miss_latency::cpu.inst 54823.087552                       # average overall mshr miss latency
system.cpu.icache.overall_avg_mshr_miss_latency::total 54823.087552                       # average overall mshr miss latency
system.membus.snoop_filter.tot_requests         91871                       # Total number of requests made to the snoop filter.
system.membus.snoop_filter.hit_single_requests        45309                       # Number of requests hitting in the snoop filter with a single holder of the requested data.
system.membus.snoop_filter.hit_multi_requests            0                       # Number of requests hitting in the snoop filter with multiple (>1) holders of the requested data.
system.membus.snoop_filter.tot_snoops               0                       # Total number of snoops made to the snoop filter.
system.membus.snoop_filter.hit_single_snoops            0                       # Number of snoops hitting in the snoop filter with a single holder of the requested data.
system.membus.snoop_filter.hit_multi_snoops            0                       # Number of snoops hitting in the snoop filter with multiple (>1) holders of the requested data.
system.membus.pwrStateResidencyTicks::UNDEFINED   5960385500                       # Cumulative time (in ticks) in various power states
system.membus.trans_dist::ReadResp              46303                       # Transaction distribution
system.membus.trans_dist::WritebackDirty           54                       # Transaction distribution
system.membus.trans_dist::WritebackClean        45086                       # Transaction distribution
system.membus.trans_dist::CleanEvict              168                       # Transaction distribution
system.membus.trans_dist::ReadExReq               258                       # Transaction distribution
system.membus.trans_dist::ReadExResp              258                       # Transaction distribution
system.membus.trans_dist::ReadCleanReq          45596                       # Transaction distribution
system.membus.trans_dist::ReadSharedReq           709                       # Transaction distribution
system.membus.pkt_count_system.cpu.icache.mem_side::system.mem_ctrls.port       136277                       # Packet count per connected master and slave (bytes)
system.membus.pkt_count_system.cpu.dcache.mem_side::system.mem_ctrls.port         2155                       # Packet count per connected master and slave (bytes)
system.membus.pkt_count::total                 138432                       # Packet count per connected master and slave (bytes)
system.membus.pkt_size_system.cpu.icache.mem_side::system.mem_ctrls.port      5803584                       # Cumulative packet size per connected master and slave (bytes)
system.membus.pkt_size_system.cpu.dcache.mem_side::system.mem_ctrls.port        65280                       # Cumulative packet size per connected master and slave (bytes)
system.membus.pkt_size::total                 5868864                       # Cumulative packet size per connected master and slave (bytes)
system.membus.snoops                                0                       # Total snoops (count)
system.membus.snoopTraffic                          0                       # Total snoop traffic (bytes)
system.membus.snoop_fanout::samples             46563                       # Request fanout histogram
system.membus.snoop_fanout::mean             0.000021                       # Request fanout histogram
system.membus.snoop_fanout::stdev            0.004634                       # Request fanout histogram
system.membus.snoop_fanout::underflows              0      0.00%      0.00% # Request fanout histogram
system.membus.snoop_fanout::0                   46562    100.00%    100.00% # Request fanout histogram
system.membus.snoop_fanout::1                       1      0.00%    100.00% # Request fanout histogram
system.membus.snoop_fanout::2                       0      0.00%    100.00% # Request fanout histogram
system.membus.snoop_fanout::overflows               0      0.00%    100.00% # Request fanout histogram
system.membus.snoop_fanout::min_value               0                       # Request fanout histogram
system.membus.snoop_fanout::max_value               1                       # Request fanout histogram
system.membus.snoop_fanout::total               46563                       # Request fanout histogram
system.membus.reqLayer0.occupancy           278863500                       # Layer occupancy (ticks)
system.membus.reqLayer0.utilization               4.7                       # Layer utilization (%)
system.membus.respLayer1.occupancy          236212495                       # Layer occupancy (ticks)
system.membus.respLayer1.utilization              4.0                       # Layer utilization (%)
system.membus.respLayer2.occupancy            5203250                       # Layer occupancy (ticks)
system.membus.respLayer2.utilization              0.1                       # Layer utilization (%)

---------- End Simulation Statistics   ----------
